# generated using pymatgen
data_Li2Si2O5
_symmetry_space_group_name_H-M   Ccc2
_cell_length_a   5.87753426
_cell_length_b   14.77505468
_cell_length_c   4.84441121
_cell_angle_alpha   90.00000000
_cell_angle_beta   90.00000000
_cell_angle_gamma   90.00000000
_symmetry_Int_Tables_number   37
_chemical_formula_structural   Li2Si2O5
_chemical_formula_sum   'Li8 Si8 O20'
_cell_volume   420.69298136
_cell_formula_units_Z   4
loop_
 _symmetry_equiv_pos_site_id
 _symmetry_equiv_pos_as_xyz
  1  'x, y, z'
  2  '-x, -y, z'
  3  '-x, y, z+1/2'
  4  'x, -y, z+1/2'
  5  'x+1/2, y+1/2, z'
  6  '-x+1/2, -y+1/2, z'
  7  '-x+1/2, y+1/2, z+1/2'
  8  'x+1/2, -y+1/2, z+1/2'
loop_
 _atom_site_type_symbol
 _atom_site_label
 _atom_site_symmetry_multiplicity
 _atom_site_fract_x
 _atom_site_fract_y
 _atom_site_fract_z
 _atom_site_occupancy
  Li  Li0  8  0.15192580  0.05747631  0.99697917  1.0
  Si  Si1  8  0.15551665  0.35210121  0.49176990  1.0
  O  O2  8  0.09319150  0.36280197  0.82628462  1.0
  O  O3  8  0.16867729  0.92859218  0.89841156  1.0
  O  O4  4  0.25000000  0.25000000  0.43527042  1.0
