# generated using pymatgen
data_LiAuF4
_symmetry_space_group_name_H-M   C2/c
_cell_length_a   10.92231956
_cell_length_b   6.83463256
_cell_length_c   4.94615806
_cell_angle_alpha   90.00000000
_cell_angle_beta   114.22573214
_cell_angle_gamma   90.00000000
_symmetry_Int_Tables_number   15
_chemical_formula_structural   LiAuF4
_chemical_formula_sum   'Li4 Au4 F16'
_cell_volume   336.71492337
_cell_formula_units_Z   4
loop_
 _symmetry_equiv_pos_site_id
 _symmetry_equiv_pos_as_xyz
  1  'x, y, z'
  2  '-x, -y, -z'
  3  '-x, y, -z+1/2'
  4  'x, -y, z+1/2'
  5  'x+1/2, y+1/2, z'
  6  '-x+1/2, -y+1/2, -z'
  7  '-x+1/2, y+1/2, -z+1/2'
  8  'x+1/2, -y+1/2, z+1/2'
loop_
 _atom_site_type_symbol
 _atom_site_label
 _atom_site_symmetry_multiplicity
 _atom_site_fract_x
 _atom_site_fract_y
 _atom_site_fract_z
 _atom_site_occupancy
  Li  Li0  4  0.00000000  0.15536640  0.75000000  1.0
  Au  Au1  4  0.25000000  0.25000000  0.50000000  1.0
  F  F2  8  0.11259691  0.10036871  0.18511294  1.0
  F  F3  8  0.12281831  0.32857794  0.66426296  1.0
