# generated using pymatgen
data_LiGaBr4
_symmetry_space_group_name_H-M   P2_1/c
_cell_length_a   7.93111771
_cell_length_b   7.15504214
_cell_length_c   16.19812719
_cell_angle_alpha   90.00000000
_cell_angle_beta   98.59420374
_cell_angle_gamma   90.00000000
_symmetry_Int_Tables_number   14
_chemical_formula_structural   LiGaBr4
_chemical_formula_sum   'Li4 Ga4 Br16'
_cell_volume   908.88165542
_cell_formula_units_Z   4
loop_
 _symmetry_equiv_pos_site_id
 _symmetry_equiv_pos_as_xyz
  1  'x, y, z'
  2  '-x, -y, -z'
  3  '-x, y+1/2, -z+1/2'
  4  'x, -y+1/2, z+1/2'
loop_
 _atom_site_type_symbol
 _atom_site_label
 _atom_site_symmetry_multiplicity
 _atom_site_fract_x
 _atom_site_fract_y
 _atom_site_fract_z
 _atom_site_occupancy
  Li  Li0  4  0.27320201  0.60156312  0.58454949  1.0
  Ga  Ga1  4  0.21827441  0.12215770  0.90680873  1.0
  Br  Br2  4  0.04633457  0.71708086  0.66934417  1.0
  Br  Br3  4  0.22437499  0.70482422  0.43022272  1.0
  Br  Br4  4  0.26199498  0.24917477  0.54327155  1.0
  Br  Br5  4  0.43638356  0.21616880  0.82957699  1.0
