# generated using pymatgen
data_Li4P2O7
_symmetry_space_group_name_H-M   P-1
_cell_length_a   5.23512256
_cell_length_b   7.20914130
_cell_length_c   8.64517401
_cell_angle_alpha   102.51444343
_cell_angle_beta   89.93791433
_cell_angle_gamma   111.01583658
_symmetry_Int_Tables_number   2
_chemical_formula_structural   Li4P2O7
_chemical_formula_sum   'Li8 P4 O14'
_cell_volume   296.28270995
_cell_formula_units_Z   2
loop_
 _symmetry_equiv_pos_site_id
 _symmetry_equiv_pos_as_xyz
  1  'x, y, z'
  2  '-x, -y, -z'
loop_
 _atom_site_type_symbol
 _atom_site_label
 _atom_site_symmetry_multiplicity
 _atom_site_fract_x
 _atom_site_fract_y
 _atom_site_fract_z
 _atom_site_occupancy
  Li  Li0  2  0.02117782  0.66858048  0.78923808  1.0
  Li  Li1  2  0.04991501  0.75616991  0.44996411  1.0
  Li  Li2  2  0.26217088  0.14800472  0.01408451  1.0
  Li  Li3  2  0.38872754  0.40653620  0.74785883  1.0
  P  P4  2  0.22224832  0.78247252  0.15745951  1.0
  P  P5  2  0.43292316  0.21679053  0.36966308  1.0
  O  O6  2  0.00018721  0.39232946  0.78733446  1.0
  O  O7  2  0.12333379  0.85145088  0.01952063  1.0
  O  O8  2  0.25881467  0.74258000  0.62213829  1.0
  O  O9  2  0.26920923  0.96559948  0.31933727  1.0
  O  O10  2  0.32140188  0.27348572  0.52857838  1.0
  O  O11  2  0.34651525  0.30190763  0.23694247  1.0
  O  O12  2  0.49061559  0.74686759  0.12996580  1.0
