# generated using pymatgen
data_Li5La3Nb2O12
_symmetry_space_group_name_H-M   P1
_cell_length_a   11.09348166
_cell_length_b   11.20101108
_cell_length_c   11.26844595
_cell_angle_alpha   110.56540088
_cell_angle_beta   107.55304968
_cell_angle_gamma   108.79708072
_symmetry_Int_Tables_number   1
_chemical_formula_structural   Li5La3Nb2O12
_chemical_formula_sum   'Li20 La12 Nb8 O48'
_cell_volume   1096.76902653
_cell_formula_units_Z   4
loop_
 _symmetry_equiv_pos_site_id
 _symmetry_equiv_pos_as_xyz
  1  'x, y, z'
loop_
 _atom_site_type_symbol
 _atom_site_label
 _atom_site_symmetry_multiplicity
 _atom_site_fract_x
 _atom_site_fract_y
 _atom_site_fract_z
 _atom_site_occupancy
  Li  Li0  1  0.02922203  0.12007492  0.31980887  1.0
  Li  Li1  1  0.12140621  0.35827899  0.74288294  1.0
  Li  Li2  1  0.13619556  0.63461047  0.34015329  1.0
  Li  Li3  1  0.21063914  0.33516936  0.00338711  1.0
  Li  Li4  1  0.24500957  0.12381798  0.85498178  1.0
  Li  Li5  1  0.26972899  0.97454101  0.47650928  1.0
  Li  Li6  1  0.29903426  0.65134229  0.20980551  1.0
  Li  Li7  1  0.30841753  0.10821481  0.05325573  1.0
  Li  Li8  1  0.37488874  0.13306046  0.28879755  1.0
  Li  Li9  1  0.39851045  0.91717100  0.19292790  1.0
  Li  Li10  1  0.46871639  0.76412304  0.57282028  1.0
  Li  Li11  1  0.49330391  0.75314284  0.10727899  1.0
  Li  Li12  1  0.60685720  0.20794289  0.84936631  1.0
  Li  Li13  1  0.66234817  0.88251701  0.88794993  1.0
  Li  Li14  1  0.74428658  0.43366635  0.06279259  1.0
  Li  Li15  1  0.75719373  0.86257801  0.12291291  1.0
  Li  Li16  1  0.75726870  0.81599214  0.72854584  1.0
  Li  Li17  1  0.76447762  0.36319821  0.63944819  1.0
  Li  Li18  1  0.88824485  0.63606029  0.29166784  1.0
  Li  Li19  1  0.90084368  0.73735933  0.61820511  1.0
  La  La20  1  0.08727227  0.85162612  0.21278018  1.0
  La  La21  1  0.11471056  0.71999069  0.86728622  1.0
  La  La22  1  0.22631746  0.40451168  0.34259300  1.0
  La  La23  1  0.25154855  0.85419104  0.63975152  1.0
  La  La24  1  0.38070736  0.26120336  0.65011728  1.0
  La  La25  1  0.38323204  0.61512281  0.77637976  1.0
  La  La26  1  0.62765846  0.72395712  0.37956173  1.0
  La  La27  1  0.63225427  0.36335762  0.27121308  1.0
  La  La28  1  0.74491289  0.60249315  0.89555034  1.0
  La  La29  1  0.77331996  0.11367254  0.38912178  1.0
  La  La30  1  0.85767044  0.22040792  0.11429041  1.0
  La  La31  1  0.87235837  0.12070597  0.75210336  1.0
  Nb  Nb32  1  0.00210689  0.47892946  0.49809185  1.0
  Nb  Nb33  1  0.00240047  0.48575656  0.00030137  1.0
  Nb  Nb34  1  0.01088337  0.99423512  0.98733714  1.0
  Nb  Nb35  1  0.01528440  0.98783812  0.50572074  1.0
  Nb  Nb36  1  0.48695415  0.47384909  0.01621928  1.0
  Nb  Nb37  1  0.49335493  0.99413818  0.99856836  1.0
  Nb  Nb38  1  0.51231958  0.98293733  0.49494152  1.0
  Nb  Nb39  1  0.55016121  0.50587959  0.54370486  1.0
  O  O40  1  0.03813771  0.67899495  0.61950555  1.0
  O  O41  1  0.05417769  0.15757620  0.17000142  1.0
  O  O42  1  0.06649029  0.36825207  0.89172496  1.0
  O  O43  1  0.06776938  0.81454830  0.41327140  1.0
  O  O44  1  0.10322480  0.12015569  0.92681765  1.0
  O  O45  1  0.11725019  0.47953937  0.17656246  1.0
  O  O46  1  0.12234100  0.50826179  0.69096465  1.0
  O  O47  1  0.15766908  0.07778094  0.43000397  1.0
  O  O48  1  0.16725159  0.68750496  0.08774032  1.0
  O  O49  1  0.17879072  0.97367400  0.08536453  1.0
  O  O50  1  0.18828339  0.58657510  0.49728213  1.0
  O  O51  1  0.20527260  0.06430918  0.66773449  1.0
  O  O52  1  0.30573414  0.97736130  0.88630290  1.0
  O  O53  1  0.32910114  0.40669568  0.82416498  1.0
  O  O54  1  0.34091847  0.80399298  0.44329704  1.0
  O  O55  1  0.35917384  0.42833277  0.56639406  1.0
  O  O56  1  0.37286991  0.01005957  0.36553674  1.0
  O  O57  1  0.37961183  0.80384072  0.98881609  1.0
  O  O58  1  0.39495901  0.30801561  0.03283517  1.0
  O  O59  1  0.42396944  0.58758205  0.13666156  1.0
  O  O60  1  0.43842350  0.33179900  0.35189785  1.0
  O  O61  1  0.45610357  0.59768899  0.44034388  1.0
  O  O62  1  0.46692784  0.08041203  0.64858589  1.0
  O  O63  1  0.47072712  0.86389912  0.80310241  1.0
  O  O64  1  0.49157346  0.10119602  0.18144851  1.0
  O  O65  1  0.55227974  0.89675634  0.32017912  1.0
  O  O66  1  0.58236366  0.39216485  0.90136274  1.0
  O  O67  1  0.58273939  0.66456419  0.99626308  1.0
  O  O68  1  0.61046936  0.41092268  0.64473459  1.0
  O  O69  1  0.61183000  0.67910616  0.73478180  1.0
  O  O70  1  0.61538615  0.18777806  0.02786697  1.0
  O  O71  1  0.63432173  0.90439112  0.58686595  1.0
  O  O72  1  0.67000476  0.55009907  0.19912891  1.0
  O  O73  1  0.68674300  0.00266622  0.10105438  1.0
  O  O74  1  0.70280433  0.58680892  0.50197257  1.0
  O  O75  1  0.70431824  0.15614610  0.58115351  1.0
  O  O76  1  0.80921859  0.36006019  0.47525294  1.0
  O  O77  1  0.82754206  0.00738447  0.89512301  1.0
  O  O78  1  0.82802212  0.29956456  0.93664590  1.0
  O  O79  1  0.86386625  0.94016480  0.32366553  1.0
  O  O80  1  0.88404603  0.45931333  0.30487089  1.0
  O  O81  1  0.88805068  0.87327614  0.55296522  1.0
  O  O82  1  0.89961931  0.85815143  0.05854719  1.0
  O  O83  1  0.90929169  0.59541762  0.10110779  1.0
  O  O84  1  0.91485708  0.52162815  0.84154602  1.0
  O  O85  1  0.93272494  0.80630134  0.81651120  1.0
  O  O86  1  0.98452832  0.15275838  0.59542442  1.0
  O  O87  1  0.99036284  0.28750711  0.37963550  1.0
