# generated using pymatgen
data_Li2Ta2(OF2)3
_symmetry_space_group_name_H-M   P3_121
_cell_length_a   5.66441322
_cell_length_b   5.66441322
_cell_length_c   21.26743904
_cell_angle_alpha   90.00000000
_cell_angle_beta   90.00000000
_cell_angle_gamma   120.00000000
_symmetry_Int_Tables_number   152
_chemical_formula_structural   Li2Ta2(OF2)3
_chemical_formula_sum   'Li6 Ta6 O9 F18'
_cell_volume   590.95673206
_cell_formula_units_Z   3
loop_
 _symmetry_equiv_pos_site_id
 _symmetry_equiv_pos_as_xyz
  1  'x, y, z'
  2  '-y, x-y, z+1/3'
  3  '-x+y, -x, z+2/3'
  4  'y, x, -z'
  5  'x-y, -y, -z+2/3'
  6  '-x, -x+y, -z+1/3'
loop_
 _atom_site_type_symbol
 _atom_site_label
 _atom_site_symmetry_multiplicity
 _atom_site_fract_x
 _atom_site_fract_y
 _atom_site_fract_z
 _atom_site_occupancy
  Li  Li0  6  0.01851472  0.45368363  0.30762482  1.0
  Ta  Ta1  6  0.09616076  0.30889987  0.87979941  1.0
  O  O2  6  0.07042026  0.59035927  0.49395876  1.0
  O  O3  3  0.00000000  0.91024973  0.16666667  1.0
  F  F4  6  0.10081474  0.83248879  0.73665036  1.0
  F  F5  6  0.16362687  0.81180203  0.05057634  1.0
  F  F6  6  0.26278275  0.61270424  0.94324882  1.0
