# generated using pymatgen
data_Li6ZnO4
_symmetry_space_group_name_H-M   P4_2/nmc
_cell_length_a   6.56272525
_cell_length_b   6.56272525
_cell_length_c   4.67355923
_cell_angle_alpha   90.00000000
_cell_angle_beta   90.00000000
_cell_angle_gamma   90.00000000
_symmetry_Int_Tables_number   137
_chemical_formula_structural   Li6ZnO4
_chemical_formula_sum   'Li12 Zn2 O8'
_cell_volume   201.28721716
_cell_formula_units_Z   2
loop_
 _symmetry_equiv_pos_site_id
 _symmetry_equiv_pos_as_xyz
  1  'x, y, z'
  2  '-y+1/2, x+1/2, z+1/2'
  3  '-x, -y, z'
  4  'y+1/2, -x+1/2, z+1/2'
  5  'x+1/2, -y+1/2, -z+1/2'
  6  '-y, -x, -z'
  7  '-x+1/2, y+1/2, -z+1/2'
  8  'y, x, -z'
  9  '-x+1/2, -y+1/2, -z+1/2'
  10  'y, -x, -z'
  11  'x+1/2, y+1/2, -z+1/2'
  12  '-y, x, -z'
  13  '-x, y, z'
  14  'y+1/2, x+1/2, z+1/2'
  15  'x, -y, z'
  16  '-y+1/2, -x+1/2, z+1/2'
loop_
 _atom_site_type_symbol
 _atom_site_label
 _atom_site_symmetry_multiplicity
 _atom_site_fract_x
 _atom_site_fract_y
 _atom_site_fract_z
 _atom_site_occupancy
  Li  Li0  8  0.21740972  0.21740972  0.00000000  1.0
  Li  Li1  4  0.00000000  0.50000000  0.45963541  1.0
  Zn  Zn2  2  0.00000000  0.00000000  0.50000000  1.0
  O  O3  8  0.00000000  0.26395764  0.72120449  1.0
