# generated using pymatgen
data_LiZr2(AsO4)3
_symmetry_space_group_name_H-M   Cc
_cell_length_a   16.10232532
_cell_length_b   9.37766217
_cell_length_c   9.26702046
_cell_angle_alpha   90.00000000
_cell_angle_beta   124.47585218
_cell_angle_gamma   90.00000000
_symmetry_Int_Tables_number   9
_chemical_formula_structural   LiZr2(AsO4)3
_chemical_formula_sum   'Li4 Zr8 As12 O48'
_cell_volume   1153.56682658
_cell_formula_units_Z   4
loop_
 _symmetry_equiv_pos_site_id
 _symmetry_equiv_pos_as_xyz
  1  'x, y, z'
  2  'x, -y, z+1/2'
  3  'x+1/2, y+1/2, z'
  4  'x+1/2, -y+1/2, z+1/2'
loop_
 _atom_site_type_symbol
 _atom_site_label
 _atom_site_symmetry_multiplicity
 _atom_site_fract_x
 _atom_site_fract_y
 _atom_site_fract_z
 _atom_site_occupancy
  Li  Li0  4  0.21280124  0.17871195  0.39957827  1.0
  Zr  Zr1  4  0.11392164  0.25297688  0.64683091  1.0
  Zr  Zr2  4  0.39258516  0.25154684  0.36946556  1.0
  As  As3  4  0.00326935  0.03922208  0.25377130  1.0
  As  As4  4  0.14438002  0.38950332  0.05251470  1.0
  As  As5  4  0.35732818  0.10647661  0.96575958  1.0
  O  O6  4  0.03203054  0.33879091  0.01940294  1.0
  O  O7  4  0.06926974  0.06067865  0.69468969  1.0
  O  O8  4  0.09557165  0.14857411  0.42015367  1.0
  O  O9  4  0.14817992  0.66269536  0.37827361  1.0
  O  O10  4  0.16187212  0.42949248  0.57599221  1.0
  O  O11  4  0.23586028  0.30417847  0.24505295  1.0
  O  O12  4  0.26219049  0.18340143  0.77323288  1.0
  O  O13  4  0.33723412  0.07615183  0.44339799  1.0
  O  O14  4  0.35364418  0.15520055  0.14131212  1.0
  O  O15  4  0.41222503  0.64360454  0.08519799  1.0
  O  O16  4  0.44324592  0.56842448  0.81808404  1.0
  O  O17  4  0.47033074  0.16027912  0.00431754  1.0
