# generated using pymatgen
data_Li4Ge9O20
_symmetry_space_group_name_H-M   P1
_cell_length_a   7.57735704
_cell_length_b   7.51524130
_cell_length_c   7.59796377
_cell_angle_alpha   89.30862206
_cell_angle_beta   88.53512183
_cell_angle_gamma   65.15938168
_symmetry_Int_Tables_number   1
_chemical_formula_structural   Li4Ge9O20
_chemical_formula_sum   'Li4 Ge9 O20'
_cell_volume   392.51159184
_cell_formula_units_Z   1
loop_
 _symmetry_equiv_pos_site_id
 _symmetry_equiv_pos_as_xyz
  1  'x, y, z'
loop_
 _atom_site_type_symbol
 _atom_site_label
 _atom_site_symmetry_multiplicity
 _atom_site_fract_x
 _atom_site_fract_y
 _atom_site_fract_z
 _atom_site_occupancy
  Li  Li0  1  0.06300865  0.33918005  0.37845501  1.0
  Li  Li1  1  0.25330955  0.70902585  0.93749875  1.0
  Li  Li2  1  0.63355226  0.92823784  0.61233563  1.0
  Li  Li3  1  0.71560934  0.34430659  0.03924903  1.0
  Ge  Ge4  1  0.09497725  0.11176027  0.76868038  1.0
  Ge  Ge5  1  0.23859139  0.77146831  0.49362290  1.0
  Ge  Ge6  1  0.35299078  0.34599671  0.70763439  1.0
  Ge  Ge7  1  0.39856516  0.07773070  0.05217951  1.0
  Ge  Ge8  1  0.48329005  0.32847120  0.33055636  1.0
  Ge  Ge9  1  0.64965003  0.65782051  0.29651067  1.0
  Ge  Ge10  1  0.69926812  0.48661690  0.67982403  1.0
  Ge  Ge11  1  0.87644446  0.92136066  0.24618705  1.0
  Ge  Ge12  1  0.92082512  0.61456647  0.95352471  1.0
  O  O13  1  0.08635395  0.93556302  0.33422134  1.0
  O  O14  1  0.11898335  0.87713515  0.69771788  1.0
  O  O15  1  0.16476972  0.48155685  0.87982579  1.0
  O  O16  1  0.19218582  0.04056923  0.98149129  1.0
  O  O17  1  0.19588026  0.22305593  0.61675243  1.0
  O  O18  1  0.25156535  0.52721519  0.49017590  1.0
  O  O19  1  0.31057341  0.25424139  0.22744472  1.0
  O  O20  1  0.46709704  0.78493636  0.48504062  1.0
  O  O21  1  0.47171734  0.51775575  0.77449905  1.0
  O  O22  1  0.48897655  0.53673832  0.21442385  1.0
  O  O23  1  0.49524373  0.13973952  0.85924103  1.0
  O  O24  1  0.55285939  0.21240110  0.53998145  1.0
  O  O25  1  0.56640456  0.84455284  0.11617132  1.0
  O  O26  1  0.70243342  0.15997542  0.20112480  1.0
  O  O27  1  0.75810550  0.67648080  0.77141083  1.0
  O  O28  1  0.77896116  0.44259628  0.45851215  1.0
  O  O29  1  0.79863948  0.78477725  0.39251506  1.0
  O  O30  1  0.84806602  0.27377658  0.80925246  1.0
  O  O31  1  0.85654069  0.49630679  0.13182957  1.0
  O  O32  1  0.96302878  0.81489765  0.03478628  1.0
