# generated using pymatgen
data_Li2Al(BO2)5
_symmetry_space_group_name_H-M   P2_1/c
_cell_length_a   7.16771851
_cell_length_b   15.13739025
_cell_length_c   7.15953859
_cell_angle_alpha   90.00000000
_cell_angle_beta   90.53108814
_cell_angle_gamma   90.00000000
_symmetry_Int_Tables_number   14
_chemical_formula_structural   Li2Al(BO2)5
_chemical_formula_sum   'Li8 Al4 B20 O40'
_cell_volume   776.78051953
_cell_formula_units_Z   4
loop_
 _symmetry_equiv_pos_site_id
 _symmetry_equiv_pos_as_xyz
  1  'x, y, z'
  2  '-x, -y, -z'
  3  '-x, y+1/2, -z+1/2'
  4  'x, -y+1/2, z+1/2'
loop_
 _atom_site_type_symbol
 _atom_site_label
 _atom_site_symmetry_multiplicity
 _atom_site_fract_x
 _atom_site_fract_y
 _atom_site_fract_z
 _atom_site_occupancy
  Li  Li0  4  0.11336761  0.67341581  0.49143781  1.0
  Li  Li1  4  0.28603488  0.07243511  0.58215960  1.0
  Al  Al2  4  0.16040369  0.62497067  0.03380513  1.0
  B  B3  4  0.19911873  0.22191044  0.51576399  1.0
  B  B4  4  0.20720928  0.52899959  0.39766539  1.0
  B  B5  4  0.24063412  0.50042403  0.72971309  1.0
  B  B6  4  0.30998098  0.12086365  0.00378166  1.0
  B  B7  4  0.46880336  0.74714589  0.49955343  1.0
  O  O8  4  0.06900069  0.15676432  0.52777553  1.0
  O  O9  4  0.15786481  0.19063220  0.99045214  1.0
  O  O10  4  0.16416847  0.59247925  0.27021029  1.0
  O  O11  4  0.17383443  0.55403183  0.58404414  1.0
  O  O12  4  0.23807076  0.53050831  0.91061857  1.0
  O  O13  4  0.27483687  0.05291244  0.85502282  1.0
  O  O14  4  0.28812307  0.72396910  0.00619585  1.0
  O  O15  4  0.30633805  0.08119502  0.19021592  1.0
  O  O16  4  0.38513214  0.19329909  0.53526277  1.0
  O  O17  4  0.49166413  0.16058781  0.97283621  1.0
