# generated using pymatgen
data_LiAlGeO5
_symmetry_space_group_name_H-M   Pna2_1
_cell_length_a   11.66621973
_cell_length_b   7.08762366
_cell_length_c   5.08635400
_cell_angle_alpha   90.00000000
_cell_angle_beta   90.00000000
_cell_angle_gamma   90.00000000
_symmetry_Int_Tables_number   33
_chemical_formula_structural   LiAlGeO5
_chemical_formula_sum   'Li4 Al4 Ge4 O20'
_cell_volume   420.56912308
_cell_formula_units_Z   4
loop_
 _symmetry_equiv_pos_site_id
 _symmetry_equiv_pos_as_xyz
  1  'x, y, z'
  2  '-x, -y, z+1/2'
  3  '-x+1/2, y+1/2, z+1/2'
  4  'x+1/2, -y+1/2, z'
loop_
 _atom_site_type_symbol
 _atom_site_label
 _atom_site_symmetry_multiplicity
 _atom_site_fract_x
 _atom_site_fract_y
 _atom_site_fract_z
 _atom_site_occupancy
  Li  Li0  4  0.16385402  0.57887414  0.25122006  1.0
  Al  Al1  4  0.16429961  0.06890037  0.25213326  1.0
  Ge  Ge2  4  0.12337136  0.81692592  0.75094902  1.0
  O  O3  4  0.02456400  0.19505763  0.11724746  1.0
  O  O4  4  0.10399106  0.31230848  0.28807165  1.0
  O  O5  4  0.13198687  0.84167463  0.09448000  1.0
  O  O6  4  0.17823763  0.01608498  0.59296262  1.0
  O  O7  4  0.19281060  0.61332277  0.63433594  1.0
