# generated using pymatgen
data_LiAuF4
_symmetry_space_group_name_H-M   C2/c
_cell_length_a   10.84737211
_cell_length_b   7.10912035
_cell_length_c   4.93497584
_cell_angle_alpha   90.00000000
_cell_angle_beta   114.76571867
_cell_angle_gamma   90.00000000
_symmetry_Int_Tables_number   15
_chemical_formula_structural   LiAuF4
_chemical_formula_sum   'Li4 Au4 F16'
_cell_volume   345.56107171
_cell_formula_units_Z   4
loop_
 _symmetry_equiv_pos_site_id
 _symmetry_equiv_pos_as_xyz
  1  'x, y, z'
  2  '-x, -y, -z'
  3  '-x, y, -z+1/2'
  4  'x, -y, z+1/2'
  5  'x+1/2, y+1/2, z'
  6  '-x+1/2, -y+1/2, -z'
  7  '-x+1/2, y+1/2, -z+1/2'
  8  'x+1/2, -y+1/2, z+1/2'
loop_
 _atom_site_type_symbol
 _atom_site_label
 _atom_site_symmetry_multiplicity
 _atom_site_fract_x
 _atom_site_fract_y
 _atom_site_fract_z
 _atom_site_occupancy
  Li  Li0  4  0.00000000  0.14323445  0.75000000  1.0
  Au  Au1  4  0.25000000  0.25000000  0.50000000  1.0
  F  F2  8  0.11565903  0.09382615  0.18980207  1.0
  F  F3  8  0.12200849  0.31483463  0.66772343  1.0
