# generated using pymatgen
data_Li2B2S5
_symmetry_space_group_name_H-M   Cmcm
_cell_length_a   15.95277535
_cell_length_b   6.60166003
_cell_length_c   7.01177547
_cell_angle_alpha   90.00000000
_cell_angle_beta   90.00000000
_cell_angle_gamma   90.00000000
_symmetry_Int_Tables_number   63
_chemical_formula_structural   Li2B2S5
_chemical_formula_sum   'Li8 B8 S20'
_cell_volume   738.44372669
_cell_formula_units_Z   4
loop_
 _symmetry_equiv_pos_site_id
 _symmetry_equiv_pos_as_xyz
  1  'x, y, z'
  2  '-x, -y, -z'
  3  '-x, -y, z+1/2'
  4  'x, y, -z+1/2'
  5  'x, -y, -z'
  6  '-x, y, z'
  7  '-x, y, -z+1/2'
  8  'x, -y, z+1/2'
  9  'x+1/2, y+1/2, z'
  10  '-x+1/2, -y+1/2, -z'
  11  '-x+1/2, -y+1/2, z+1/2'
  12  'x+1/2, y+1/2, -z+1/2'
  13  'x+1/2, -y+1/2, -z'
  14  '-x+1/2, y+1/2, z'
  15  '-x+1/2, y+1/2, -z+1/2'
  16  'x+1/2, -y+1/2, z+1/2'
loop_
 _atom_site_type_symbol
 _atom_site_label
 _atom_site_symmetry_multiplicity
 _atom_site_fract_x
 _atom_site_fract_y
 _atom_site_fract_z
 _atom_site_occupancy
  Li  Li0  8  0.23591006  0.50000000  0.00000000  1.0
  B  B1  8  0.08750788  0.15326908  0.75000000  1.0
  S  S2  8  0.06550268  0.11539225  0.25000000  1.0
  S  S3  8  0.19642954  0.23154480  0.75000000  1.0
  S  S4  4  0.00000000  0.32950191  0.75000000  1.0
