# generated using pymatgen
data_LiIO4
_symmetry_space_group_name_H-M   P2_1/c
_cell_length_a   5.45226307
_cell_length_b   8.81713745
_cell_length_c   8.59055414
_cell_angle_alpha   90.00000000
_cell_angle_beta   112.55556023
_cell_angle_gamma   90.00000000
_symmetry_Int_Tables_number   14
_chemical_formula_structural   LiIO4
_chemical_formula_sum   'Li4 I4 O16'
_cell_volume   381.38732680
_cell_formula_units_Z   4
loop_
 _symmetry_equiv_pos_site_id
 _symmetry_equiv_pos_as_xyz
  1  'x, y, z'
  2  '-x, -y, -z'
  3  '-x, y+1/2, -z+1/2'
  4  'x, -y+1/2, z+1/2'
loop_
 _atom_site_type_symbol
 _atom_site_label
 _atom_site_symmetry_multiplicity
 _atom_site_fract_x
 _atom_site_fract_y
 _atom_site_fract_z
 _atom_site_occupancy
  Li  Li0  4  0.08815560  0.03274648  0.83195733  1.0
  I  I1  4  0.34048038  0.71351175  0.06798609  1.0
  O  O2  4  0.11862945  0.61888435  0.51814658  1.0
  O  O3  4  0.23540244  0.58323624  0.88721688  1.0
  O  O4  4  0.31502623  0.22577422  0.87740438  1.0
  O  O5  4  0.32084168  0.61328001  0.25038327  1.0
