# generated using pymatgen
data_NaLiB4O7
_symmetry_space_group_name_H-M   Fdd2
_cell_length_a   13.39394900
_cell_length_b   14.34042248
_cell_length_c   10.43817303
_cell_angle_alpha   90.00000000
_cell_angle_beta   90.00000000
_cell_angle_gamma   90.00000000
_symmetry_Int_Tables_number   43
_chemical_formula_structural   NaLiB4O7
_chemical_formula_sum   'Na16 Li16 B64 O112'
_cell_volume   2004.91090906
_cell_formula_units_Z   16
loop_
 _symmetry_equiv_pos_site_id
 _symmetry_equiv_pos_as_xyz
  1  'x, y, z'
  2  '-x, -y, z'
  3  '-x+1/4, y+3/4, z+3/4'
  4  'x+1/4, -y+3/4, z+3/4'
  5  'x, y+1/2, z+1/2'
  6  '-x, -y+1/2, z+1/2'
  7  '-x+1/4, y+1/4, z+1/4'
  8  'x+1/4, -y+1/4, z+1/4'
  9  'x+1/2, y, z+1/2'
  10  '-x+1/2, -y, z+1/2'
  11  '-x+3/4, y+3/4, z+1/4'
  12  'x+3/4, -y+3/4, z+1/4'
  13  'x+1/2, y+1/2, z'
  14  '-x+1/2, -y+1/2, z'
  15  '-x+3/4, y+1/4, z+3/4'
  16  'x+3/4, -y+1/4, z+3/4'
loop_
 _atom_site_type_symbol
 _atom_site_label
 _atom_site_symmetry_multiplicity
 _atom_site_fract_x
 _atom_site_fract_y
 _atom_site_fract_z
 _atom_site_occupancy
  Na  Na0  16  0.09924462  0.24011083  0.37634095  1.0
  Li  Li1  16  0.00166343  0.36518883  0.13030497  1.0
  B  B2  16  0.03593904  0.42413978  0.85054964  1.0
  B  B3  16  0.04691397  0.11882449  0.94349102  1.0
  B  B4  16  0.08556045  0.47231077  0.32682544  1.0
  B  B5  16  0.12441282  0.29556636  0.71738856  1.0
  O  O6  16  0.03811374  0.09657553  0.45468201  1.0
  O  O7  16  0.04703142  0.33541927  0.78201295  1.0
  O  O8  16  0.05236951  0.39318523  0.41184186  1.0
  O  O9  16  0.07443991  0.19763937  0.00681038  1.0
  O  O10  16  0.11727639  0.05242407  0.91141050  1.0
  O  O11  16  0.11840093  0.20673735  0.66564006  1.0
  O  O12  8  0.00000000  0.00000000  0.26845126  1.0
  O  O13  8  0.00000000  0.00000000  0.74486493  1.0
