# generated using pymatgen
data_Li2Si2O5
_symmetry_space_group_name_H-M   Pbcn
_cell_length_a   5.73149286
_cell_length_b   4.86252226
_cell_length_c   14.80359747
_cell_angle_alpha   90.00000000
_cell_angle_beta   90.00000000
_cell_angle_gamma   90.00000000
_symmetry_Int_Tables_number   60
_chemical_formula_structural   Li2Si2O5
_chemical_formula_sum   'Li8 Si8 O20'
_cell_volume   412.56903139
_cell_formula_units_Z   4
loop_
 _symmetry_equiv_pos_site_id
 _symmetry_equiv_pos_as_xyz
  1  'x, y, z'
  2  '-x, -y, -z'
  3  '-x+1/2, -y+1/2, z+1/2'
  4  'x+1/2, y+1/2, -z+1/2'
  5  'x+1/2, -y+1/2, -z'
  6  '-x+1/2, y+1/2, z'
  7  '-x, y, -z+1/2'
  8  'x, -y, z+1/2'
loop_
 _atom_site_type_symbol
 _atom_site_label
 _atom_site_symmetry_multiplicity
 _atom_site_fract_x
 _atom_site_fract_y
 _atom_site_fract_z
 _atom_site_occupancy
  Li  Li0  8  0.09874819  0.19185448  0.05125558  1.0
  Si  Si1  8  0.09380343  0.30292536  0.85185451  1.0
  O  O2  8  0.07673142  0.20851499  0.56837519  1.0
  O  O3  8  0.15119119  0.36224118  0.36162957  1.0
  O  O4  4  0.00000000  0.24104937  0.75000000  1.0
