# generated using pymatgen
data_Li3AlSiO5
_symmetry_space_group_name_H-M   Pna2_1
_cell_length_a   5.37559933
_cell_length_b   15.68313688
_cell_length_c   4.84860400
_cell_angle_alpha   90.00000000
_cell_angle_beta   90.00000000
_cell_angle_gamma   90.00000000
_symmetry_Int_Tables_number   33
_chemical_formula_structural   Li3AlSiO5
_chemical_formula_sum   'Li12 Al4 Si4 O20'
_cell_volume   408.76766994
_cell_formula_units_Z   4
loop_
 _symmetry_equiv_pos_site_id
 _symmetry_equiv_pos_as_xyz
  1  'x, y, z'
  2  '-x, -y, z+1/2'
  3  '-x+1/2, y+1/2, z+1/2'
  4  'x+1/2, -y+1/2, z'
loop_
 _atom_site_type_symbol
 _atom_site_label
 _atom_site_symmetry_multiplicity
 _atom_site_fract_x
 _atom_site_fract_y
 _atom_site_fract_z
 _atom_site_occupancy
  Li  Li0  4  0.16434610  0.00443638  0.89511147  1.0
  Li  Li1  4  0.16999249  0.59508263  0.89773747  1.0
  Li  Li2  4  0.17285961  0.19648428  0.89714812  1.0
  Al  Al3  4  0.17201939  0.79981663  0.89805487  1.0
  Si  Si4  4  0.16642158  0.40170507  0.89414874  1.0
  O  O5  4  0.12375617  0.60236591  0.30183124  1.0
  O  O6  4  0.14608693  0.20943964  0.30841352  1.0
  O  O7  4  0.18701474  0.98687634  0.29823753  1.0
  O  O8  4  0.18755564  0.81405302  0.26629776  1.0
  O  O9  4  0.19074081  0.39090938  0.23851929  1.0
