# generated using pymatgen
data_LiInGeO4
_symmetry_space_group_name_H-M   Pnma
_cell_length_a   10.88545390
_cell_length_b   6.17161543
_cell_length_c   5.06416481
_cell_angle_alpha   90.00000000
_cell_angle_beta   90.00000000
_cell_angle_gamma   90.00000000
_symmetry_Int_Tables_number   62
_chemical_formula_structural   LiInGeO4
_chemical_formula_sum   'Li4 In4 Ge4 O16'
_cell_volume   340.21482187
_cell_formula_units_Z   4
loop_
 _symmetry_equiv_pos_site_id
 _symmetry_equiv_pos_as_xyz
  1  'x, y, z'
  2  '-x, -y, -z'
  3  '-x+1/2, -y, z+1/2'
  4  'x+1/2, y, -z+1/2'
  5  'x+1/2, -y+1/2, -z+1/2'
  6  '-x+1/2, y+1/2, z+1/2'
  7  '-x, y+1/2, -z'
  8  'x, -y+1/2, z'
loop_
 _atom_site_type_symbol
 _atom_site_label
 _atom_site_symmetry_multiplicity
 _atom_site_fract_x
 _atom_site_fract_y
 _atom_site_fract_z
 _atom_site_occupancy
  Li  Li0  4  0.00000000  0.00000000  0.00000000  1.0
  In  In1  4  0.22779535  0.25000000  0.49250259  1.0
  Ge  Ge2  4  0.08682302  0.75000000  0.44172114  1.0
  O  O3  8  0.16581637  0.53201317  0.27251807  1.0
  O  O4  4  0.05918842  0.25000000  0.71158033  1.0
  O  O5  4  0.09362243  0.75000000  0.78680783  1.0
