# generated using pymatgen
data_Li3AuO3
_symmetry_space_group_name_H-M   P4_2/mnm
_cell_length_a   9.19602408
_cell_length_b   9.19602408
_cell_length_c   3.61317403
_cell_angle_alpha   90.00000000
_cell_angle_beta   90.00000000
_cell_angle_gamma   90.00000000
_symmetry_Int_Tables_number   136
_chemical_formula_structural   Li3AuO3
_chemical_formula_sum   'Li12 Au4 O12'
_cell_volume   305.55477839
_cell_formula_units_Z   4
loop_
 _symmetry_equiv_pos_site_id
 _symmetry_equiv_pos_as_xyz
  1  'x, y, z'
  2  '-x, -y, -z'
  3  '-y+1/2, x+1/2, z+1/2'
  4  'y+1/2, -x+1/2, -z+1/2'
  5  '-x, -y, z'
  6  'x, y, -z'
  7  'y+1/2, -x+1/2, z+1/2'
  8  '-y+1/2, x+1/2, -z+1/2'
  9  'x+1/2, -y+1/2, -z+1/2'
  10  '-x+1/2, y+1/2, z+1/2'
  11  '-y, -x, -z'
  12  'y, x, z'
  13  '-x+1/2, y+1/2, -z+1/2'
  14  'x+1/2, -y+1/2, z+1/2'
  15  'y, x, -z'
  16  '-y, -x, z'
loop_
 _atom_site_type_symbol
 _atom_site_label
 _atom_site_symmetry_multiplicity
 _atom_site_fract_x
 _atom_site_fract_y
 _atom_site_fract_z
 _atom_site_occupancy
  Li  Li0  8  0.09255812  0.63982175  0.00000000  1.0
  Li  Li1  4  0.16674531  0.83325469  0.50000000  1.0
  Au  Au2  4  0.11832422  0.11832422  0.00000000  1.0
  O  O3  8  0.11869342  0.33674281  0.00000000  1.0
  O  O4  4  0.10635519  0.89364481  0.00000000  1.0
