# generated using pymatgen
data_CsLi2I3
_symmetry_space_group_name_H-M   P-4m2
_cell_length_a   4.61944008
_cell_length_b   4.61944008
_cell_length_c   10.94817094
_cell_angle_alpha   90.00000000
_cell_angle_beta   90.00000000
_cell_angle_gamma   90.00000000
_symmetry_Int_Tables_number   115
_chemical_formula_structural   CsLi2I3
_chemical_formula_sum   'Cs1 Li2 I3'
_cell_volume   233.62550123
_cell_formula_units_Z   1
loop_
 _symmetry_equiv_pos_site_id
 _symmetry_equiv_pos_as_xyz
  1  'x, y, z'
  2  'y, -x, -z'
  3  '-x, -y, z'
  4  '-y, x, -z'
  5  'x, -y, z'
  6  'y, x, -z'
  7  '-x, y, z'
  8  '-y, -x, -z'
loop_
 _atom_site_type_symbol
 _atom_site_label
 _atom_site_symmetry_multiplicity
 _atom_site_fract_x
 _atom_site_fract_y
 _atom_site_fract_z
 _atom_site_occupancy
  Cs  Cs0  1  0.00000000  0.00000000  0.00000000  1.0
  Li  Li1  2  0.00000000  0.50000000  0.64261600  1.0
  I  I2  2  0.50000000  0.50000000  0.20781295  1.0
  I  I3  1  0.00000000  0.00000000  0.50000000  1.0
