# generated using pymatgen
data_Li7NbN4
_symmetry_space_group_name_H-M   Pa-3
_cell_length_a   9.80676105
_cell_length_b   9.80676105
_cell_length_c   9.80676105
_cell_angle_alpha   90.00000000
_cell_angle_beta   90.00000000
_cell_angle_gamma   90.00000000
_symmetry_Int_Tables_number   205
_chemical_formula_structural   Li7NbN4
_chemical_formula_sum   'Li56 Nb8 N32'
_cell_volume   943.14133668
_cell_formula_units_Z   8
loop_
 _symmetry_equiv_pos_site_id
 _symmetry_equiv_pos_as_xyz
  1  'x, y, z'
  2  '-x, -y, -z'
  3  '-x+1/2, -y, z+1/2'
  4  'x+1/2, y, -z+1/2'
  5  'x+1/2, -y+1/2, -z'
  6  '-x+1/2, y+1/2, z'
  7  '-x, y+1/2, -z+1/2'
  8  'x, -y+1/2, z+1/2'
  9  'z, x, y'
  10  '-z, -x, -y'
  11  'z+1/2, -x+1/2, -y'
  12  '-z+1/2, x+1/2, y'
  13  '-z, x+1/2, -y+1/2'
  14  'z, -x+1/2, y+1/2'
  15  '-z+1/2, -x, y+1/2'
  16  'z+1/2, x, -y+1/2'
  17  'y, z, x'
  18  '-y, -z, -x'
  19  '-y, z+1/2, -x+1/2'
  20  'y, -z+1/2, x+1/2'
  21  '-y+1/2, -z, x+1/2'
  22  'y+1/2, z, -x+1/2'
  23  'y+1/2, -z+1/2, -x'
  24  '-y+1/2, z+1/2, x'
loop_
 _atom_site_type_symbol
 _atom_site_label
 _atom_site_symmetry_multiplicity
 _atom_site_fract_x
 _atom_site_fract_y
 _atom_site_fract_z
 _atom_site_occupancy
  Li  Li0  24  0.10008093  0.13208712  0.87975771  1.0
  Li  Li1  24  0.11593109  0.63161164  0.13929786  1.0
  Li  Li2  8  0.13172761  0.13172761  0.13172761  1.0
  Nb  Nb3  8  0.12758900  0.62758900  0.87241100  1.0
  N  N4  24  0.00997757  0.74448615  0.98622351  1.0
  N  N5  8  0.24251902  0.74251902  0.75748098  1.0
