# generated using pymatgen
data_Li3Al(BO3)2
_symmetry_space_group_name_H-M   P-1
_cell_length_a   4.90571314
_cell_length_b   6.32673260
_cell_length_c   8.02893844
_cell_angle_alpha   106.82866510
_cell_angle_beta   90.93161229
_cell_angle_gamma   89.11087583
_symmetry_Int_Tables_number   2
_chemical_formula_structural   Li3Al(BO3)2
_chemical_formula_sum   'Li6 Al2 B4 O12'
_cell_volume   238.47666120
_cell_formula_units_Z   2
loop_
 _symmetry_equiv_pos_site_id
 _symmetry_equiv_pos_as_xyz
  1  'x, y, z'
  2  '-x, -y, -z'
loop_
 _atom_site_type_symbol
 _atom_site_label
 _atom_site_symmetry_multiplicity
 _atom_site_fract_x
 _atom_site_fract_y
 _atom_site_fract_z
 _atom_site_occupancy
  Li  Li0  2  0.17996378  0.89840461  0.07061130  1.0
  Li  Li1  2  0.32430741  0.02996194  0.74112580  1.0
  Li  Li2  2  0.33094302  0.73843236  0.38843263  1.0
  Al  Al3  2  0.14933059  0.55608450  0.72495538  1.0
  B  B4  2  0.15873455  0.17792333  0.42877890  1.0
  B  B5  2  0.33564292  0.32377407  0.09264592  1.0
  O  O6  2  0.11164005  0.75953517  0.60635504  1.0
  O  O7  2  0.18958329  0.48250754  0.21974500  1.0
  O  O8  2  0.20827927  0.16056525  0.97054527  1.0
  O  O9  2  0.27430148  0.29672793  0.58923159  1.0
  O  O10  2  0.29034851  0.00656715  0.31923641  1.0
  O  O11  2  0.37960338  0.66449328  0.89664486  1.0
