# generated using pymatgen
data_Li16Nb2N8O
_symmetry_space_group_name_H-M   R-3
_cell_length_a   5.97235010
_cell_length_b   5.97235010
_cell_length_c   25.43177797
_cell_angle_alpha   90.00000000
_cell_angle_beta   90.00000000
_cell_angle_gamma   120.00000000
_symmetry_Int_Tables_number   148
_chemical_formula_structural   Li16Nb2N8O
_chemical_formula_sum   'Li48 Nb6 N24 O3'
_cell_volume   785.59348139
_cell_formula_units_Z   3
loop_
 _symmetry_equiv_pos_site_id
 _symmetry_equiv_pos_as_xyz
  1  'x, y, z'
  2  '-x, -y, -z'
  3  '-y, x-y, z'
  4  'y, -x+y, -z'
  5  '-x+y, -x, z'
  6  'x-y, x, -z'
  7  'x+2/3, y+1/3, z+1/3'
  8  '-x+2/3, -y+1/3, -z+1/3'
  9  '-y+2/3, x-y+1/3, z+1/3'
  10  'y+2/3, -x+y+1/3, -z+1/3'
  11  '-x+y+2/3, -x+1/3, z+1/3'
  12  'x-y+2/3, x+1/3, -z+1/3'
  13  'x+1/3, y+2/3, z+2/3'
  14  '-x+1/3, -y+2/3, -z+2/3'
  15  '-y+1/3, x-y+2/3, z+2/3'
  16  'y+1/3, -x+y+2/3, -z+2/3'
  17  '-x+y+1/3, -x+2/3, z+2/3'
  18  'x-y+1/3, x+2/3, -z+2/3'
loop_
 _atom_site_type_symbol
 _atom_site_label
 _atom_site_symmetry_multiplicity
 _atom_site_fract_x
 _atom_site_fract_y
 _atom_site_fract_z
 _atom_site_occupancy
  Li  Li0  18  0.00805176  0.64149687  0.31275654  1.0
  Li  Li1  18  0.02452584  0.63529526  0.80526106  1.0
  Li  Li2  6  0.00000000  0.00000000  0.07411063  1.0
  Li  Li3  6  0.00000000  0.00000000  0.41449645  1.0
  Nb  Nb4  6  0.00000000  0.00000000  0.24614940  1.0
  N  N5  18  0.00109303  0.68881442  0.22134950  1.0
  N  N6  6  0.00000000  0.00000000  0.32329688  1.0
  O  O7  3  0.00000000  0.00000000  0.00000000  1.0
