# generated using pymatgen
data_LiIO3
_symmetry_space_group_name_H-M   P1
_cell_length_a   6.36143486
_cell_length_b   10.12742405
_cell_length_c   10.51313216
_cell_angle_alpha   84.81600740
_cell_angle_beta   82.72436256
_cell_angle_gamma   86.21955358
_symmetry_Int_Tables_number   1
_chemical_formula_structural   LiIO3
_chemical_formula_sum   'Li8 I8 O24'
_cell_volume   668.08783002
_cell_formula_units_Z   8
loop_
 _symmetry_equiv_pos_site_id
 _symmetry_equiv_pos_as_xyz
  1  'x, y, z'
loop_
 _atom_site_type_symbol
 _atom_site_label
 _atom_site_symmetry_multiplicity
 _atom_site_fract_x
 _atom_site_fract_y
 _atom_site_fract_z
 _atom_site_occupancy
  Li  Li0  1  0.21119182  0.91913532  0.75625793  1.0
  Li  Li1  1  0.27212204  0.45144414  0.65143485  1.0
  Li  Li2  1  0.28626138  0.25879754  0.19977108  1.0
  Li  Li3  1  0.36066406  0.99655446  0.09456479  1.0
  Li  Li4  1  0.60256042  0.21809439  0.90605580  1.0
  Li  Li5  1  0.60780463  0.76943277  0.14497793  1.0
  Li  Li6  1  0.81258813  0.96660184  0.96429333  1.0
  Li  Li7  1  0.97771113  0.55045655  0.50916592  1.0
  I  I8  1  0.08287401  0.28756064  0.96788684  1.0
  I  I9  1  0.18725563  0.72500930  0.02096756  1.0
  I  I10  1  0.32696425  0.17778761  0.45601963  1.0
  I  I11  1  0.46599867  0.73875191  0.50826036  1.0
  I  I12  1  0.69259542  0.50603220  0.79515403  1.0
  I  I13  1  0.75965629  0.50878281  0.22758565  1.0
  I  I14  1  0.76924959  0.02119194  0.65475481  1.0
  I  I15  1  0.85082330  0.02402222  0.25333064  1.0
  O  O16  1  0.03967362  0.83984515  0.90454557  1.0
  O  O17  1  0.05283127  0.36815462  0.12547409  1.0
  O  O18  1  0.05390541  0.06079868  0.66431503  1.0
  O  O19  1  0.09743554  0.92340252  0.19143154  1.0
  O  O20  1  0.11139889  0.15961761  0.34864502  1.0
  O  O21  1  0.23458530  0.63439369  0.56483027  1.0
  O  O22  1  0.25619827  0.34509190  0.51203280  1.0
  O  O23  1  0.29589123  0.58770432  0.91947330  1.0
  O  O24  1  0.33358244  0.18933148  0.02018354  1.0
  O  O25  1  0.42815999  0.86405123  0.63339601  1.0
  O  O26  1  0.43069679  0.82513518  0.01234361  1.0
  O  O27  1  0.49403904  0.39166896  0.75697645  1.0
  O  O28  1  0.52350052  0.22018193  0.30704371  1.0
  O  O29  1  0.53767436  0.63027318  0.29500731  1.0
  O  O30  1  0.64875087  0.04401466  0.82616137  1.0
  O  O31  1  0.65603948  0.17532692  0.57296086  1.0
  O  O32  1  0.66310743  0.95296161  0.14941280  1.0
  O  O33  1  0.68622419  0.63002934  0.57751397  1.0
  O  O34  1  0.74775086  0.38746761  0.94478178  1.0
  O  O35  1  0.76384325  0.92876403  0.41105973  1.0
  O  O36  1  0.81858333  0.63018103  0.08010244  1.0
  O  O37  1  0.90283518  0.14559409  0.00210401  1.0
  O  O38  1  0.94721725  0.45536299  0.69718812  1.0
  O  O39  1  0.97070171  0.53119624  0.32863879  1.0
