# generated using pymatgen
data_Ba2Li3NbN4
_symmetry_space_group_name_H-M   C2/c
_cell_length_a   11.28273724
_cell_length_b   5.68715529
_cell_length_c   11.08102680
_cell_angle_alpha   90.00000000
_cell_angle_beta   118.86271271
_cell_angle_gamma   90.00000000
_symmetry_Int_Tables_number   15
_chemical_formula_structural   Ba2Li3NbN4
_chemical_formula_sum   'Ba8 Li12 Nb4 N16'
_cell_volume   622.70739296
_cell_formula_units_Z   4
loop_
 _symmetry_equiv_pos_site_id
 _symmetry_equiv_pos_as_xyz
  1  'x, y, z'
  2  '-x, -y, -z'
  3  '-x, y, -z+1/2'
  4  'x, -y, z+1/2'
  5  'x+1/2, y+1/2, z'
  6  '-x+1/2, -y+1/2, -z'
  7  '-x+1/2, y+1/2, -z+1/2'
  8  'x+1/2, -y+1/2, z+1/2'
loop_
 _atom_site_type_symbol
 _atom_site_label
 _atom_site_symmetry_multiplicity
 _atom_site_fract_x
 _atom_site_fract_y
 _atom_site_fract_z
 _atom_site_occupancy
  Ba  Ba0  8  0.15142185  0.78356647  0.11054622  1.0
  Li  Li1  8  0.17828914  0.70660329  0.54498450  1.0
  Li  Li2  4  0.00000000  0.38250317  0.75000000  1.0
  Nb  Nb3  4  0.00000000  0.14010313  0.25000000  1.0
  N  N4  8  0.07881292  0.34360967  0.16358526  1.0
  N  N5  8  0.13719496  0.06814393  0.88783783  1.0
