# generated using pymatgen
data_Li2Ti3O7
_symmetry_space_group_name_H-M   P2_1/m
_cell_length_a   7.64095850
_cell_length_b   3.74322768
_cell_length_c   9.45310155
_cell_angle_alpha   90.00000000
_cell_angle_beta   97.24192778
_cell_angle_gamma   90.00000000
_symmetry_Int_Tables_number   11
_chemical_formula_structural   Li2Ti3O7
_chemical_formula_sum   'Li4 Ti6 O14'
_cell_volume   268.21930082
_cell_formula_units_Z   2
loop_
 _symmetry_equiv_pos_site_id
 _symmetry_equiv_pos_as_xyz
  1  'x, y, z'
  2  '-x, -y, -z'
  3  '-x, y+1/2, -z'
  4  'x, -y+1/2, z'
loop_
 _atom_site_type_symbol
 _atom_site_label
 _atom_site_symmetry_multiplicity
 _atom_site_fract_x
 _atom_site_fract_y
 _atom_site_fract_z
 _atom_site_occupancy
  Li  Li0  2  0.07405994  0.75000000  0.09295327  1.0
  Li  Li1  2  0.09529841  0.25000000  0.32519210  1.0
  Ti  Ti2  2  0.23689942  0.75000000  0.84183030  1.0
  Ti  Ti3  2  0.33590600  0.75000000  0.53220474  1.0
  Ti  Ti4  2  0.44535461  0.75000000  0.22117706  1.0
  O  O5  2  0.01307492  0.75000000  0.87503981  1.0
  O  O6  2  0.14990243  0.75000000  0.63003164  1.0
  O  O7  2  0.24336701  0.75000000  0.33804569  1.0
  O  O8  2  0.30734967  0.25000000  0.83724098  1.0
  O  O9  2  0.31933523  0.75000000  0.05233738  1.0
  O  O10  2  0.40625137  0.25000000  0.54898832  1.0
  O  O11  2  0.49476277  0.75000000  0.74292435  1.0
