# generated using pymatgen
data_Li10Ge(PS6)2
_symmetry_space_group_name_H-M   P1
_cell_length_a   8.61146208
_cell_length_b   8.93524019
_cell_length_c   12.96685731
_cell_angle_alpha   89.89431184
_cell_angle_beta   89.87474929
_cell_angle_gamma   90.74903649
_symmetry_Int_Tables_number   1
_chemical_formula_structural   Li10Ge(PS6)2
_chemical_formula_sum   'Li20 Ge2 P4 S24'
_cell_volume   997.65169304
_cell_formula_units_Z   2
loop_
 _symmetry_equiv_pos_site_id
 _symmetry_equiv_pos_as_xyz
  1  'x, y, z'
loop_
 _atom_site_type_symbol
 _atom_site_label
 _atom_site_symmetry_multiplicity
 _atom_site_fract_x
 _atom_site_fract_y
 _atom_site_fract_z
 _atom_site_occupancy
  Li  Li0  1  0.01119058  0.51259627  0.06100583  1.0
  Li  Li1  1  0.18129597  0.24306121  0.73984314  1.0
  Li  Li2  1  0.20733756  0.15723904  0.24194362  1.0
  Li  Li3  1  0.23008886  0.78293130  0.66532847  1.0
  Li  Li4  1  0.23101213  0.75594594  0.36805825  1.0
  Li  Li5  1  0.24275852  0.24304859  0.99143105  1.0
  Li  Li6  1  0.24449901  0.24653486  0.49708580  1.0
  Li  Li7  1  0.25314259  0.81066364  0.92443378  1.0
  Li  Li8  1  0.28079650  0.72788114  0.15504158  1.0
  Li  Li9  1  0.49739474  0.50059768  0.76663350  1.0
  Li  Li10  1  0.50260837  0.98482146  0.42865584  1.0
  Li  Li11  1  0.51330652  0.02033788  0.94407115  1.0
  Li  Li12  1  0.69922476  0.34131693  0.24842962  1.0
  Li  Li13  1  0.74498111  0.25349274  0.49492697  1.0
  Li  Li14  1  0.74507582  0.75190728  0.00936447  1.0
  Li  Li15  1  0.74612844  0.77772452  0.67947030  1.0
  Li  Li16  1  0.75391147  0.25556314  0.99830863  1.0
  Li  Li17  1  0.76357540  0.76397290  0.32303153  1.0
  Li  Li18  1  0.80687901  0.23931407  0.74393170  1.0
  Li  Li19  1  0.99483592  0.52302338  0.55958416  1.0
  Ge  Ge20  1  0.50425296  0.99843022  0.18135353  1.0
  Ge  Ge21  1  0.99495507  0.51994606  0.81469334  1.0
  P  P22  1  0.00431862  0.49530819  0.31623286  1.0
  P  P23  1  0.49156786  0.01144465  0.68850449  1.0
  P  P24  1  0.49395172  0.49221741  0.00357593  1.0
  P  P25  1  0.98489627  0.00487109  0.49672215  1.0
  S  S26  1  0.01656012  0.69735136  0.23718546  1.0
  S  S27  1  0.18683385  0.01680399  0.40966337  1.0
  S  S28  1  0.19256217  0.49062176  0.41368181  1.0
  S  S29  1  0.20167770  0.51742667  0.70799658  1.0
  S  S30  1  0.28459786  0.99282352  0.08078531  1.0
  S  S31  1  0.29243680  0.00069506  0.77983946  1.0
  S  S32  1  0.30339578  0.46888148  0.09623975  1.0
  S  S33  1  0.48119825  0.18842851  0.29008474  1.0
  S  S34  1  0.48844913  0.78860210  0.27715061  1.0
  S  S35  1  0.49098311  0.21068341  0.60577818  1.0
  S  S36  1  0.49220326  0.82696736  0.59274611  1.0
  S  S37  1  0.49659682  0.31030536  0.90365491  1.0
  S  S38  1  0.50131776  0.68403436  0.91381360  1.0
  S  S39  1  0.68273268  0.00028872  0.78292109  1.0
  S  S40  1  0.69473851  0.49249126  0.08997906  1.0
  S  S41  1  0.71212628  0.00602872  0.07956706  1.0
  S  S42  1  0.78923662  0.51077817  0.70730844  1.0
  S  S43  1  0.79754417  0.50059972  0.39981654  1.0
  S  S44  1  0.79775288  0.02326812  0.40123280  1.0
  S  S45  1  0.98373725  0.81376416  0.58296438  1.0
  S  S46  1  0.98861757  0.32093239  0.21351516  1.0
  S  S47  1  0.98929481  0.19719611  0.58965210  1.0
  S  S48  1  0.99604825  0.29252872  0.89387914  1.0
  S  S49  1  0.99727255  0.70810779  0.92568264  1.0
