# generated using pymatgen
data_Li2MoO4
_symmetry_space_group_name_H-M   R-3
_cell_length_a   14.51649713
_cell_length_b   14.51649713
_cell_length_c   9.66946858
_cell_angle_alpha   90.00000000
_cell_angle_beta   90.00000000
_cell_angle_gamma   120.00000000
_symmetry_Int_Tables_number   148
_chemical_formula_structural   Li2MoO4
_chemical_formula_sum   'Li36 Mo18 O72'
_cell_volume   1764.64318620
_cell_formula_units_Z   18
loop_
 _symmetry_equiv_pos_site_id
 _symmetry_equiv_pos_as_xyz
  1  'x, y, z'
  2  '-x, -y, -z'
  3  '-y, x-y, z'
  4  'y, -x+y, -z'
  5  '-x+y, -x, z'
  6  'x-y, x, -z'
  7  'x+2/3, y+1/3, z+1/3'
  8  '-x+2/3, -y+1/3, -z+1/3'
  9  '-y+2/3, x-y+1/3, z+1/3'
  10  'y+2/3, -x+y+1/3, -z+1/3'
  11  '-x+y+2/3, -x+1/3, z+1/3'
  12  'x-y+2/3, x+1/3, -z+1/3'
  13  'x+1/3, y+2/3, z+2/3'
  14  '-x+1/3, -y+2/3, -z+2/3'
  15  '-y+1/3, x-y+2/3, z+2/3'
  16  'y+1/3, -x+y+2/3, -z+2/3'
  17  '-x+y+1/3, -x+2/3, z+2/3'
  18  'x-y+1/3, x+2/3, -z+2/3'
loop_
 _atom_site_type_symbol
 _atom_site_label
 _atom_site_symmetry_multiplicity
 _atom_site_fract_x
 _atom_site_fract_y
 _atom_site_fract_z
 _atom_site_occupancy
  Li  Li0  18  0.01820123  0.21172681  0.91437080  1.0
  Li  Li1  18  0.02058060  0.21289208  0.58501169  1.0
  Mo  Mo2  18  0.01741310  0.21256072  0.24963749  1.0
  O  O3  18  0.00132858  0.32620465  0.24874216  1.0
  O  O4  18  0.08549491  0.21144560  0.09689590  1.0
  O  O5  18  0.08613273  0.21204117  0.40243866  1.0
  O  O6  18  0.09759763  0.20927474  0.75011493  1.0
