# generated using pymatgen
data_Li3Ga(BO3)2
_symmetry_space_group_name_H-M   P-1
_cell_length_a   4.90065146
_cell_length_b   6.31929199
_cell_length_c   8.06661056
_cell_angle_alpha   107.13311077
_cell_angle_beta   89.66156889
_cell_angle_gamma   90.42069541
_symmetry_Int_Tables_number   2
_chemical_formula_structural   Li3Ga(BO3)2
_chemical_formula_sum   'Li6 Ga2 B4 O12'
_cell_volume   238.71782706
_cell_formula_units_Z   2
loop_
 _symmetry_equiv_pos_site_id
 _symmetry_equiv_pos_as_xyz
  1  'x, y, z'
  2  '-x, -y, -z'
loop_
 _atom_site_type_symbol
 _atom_site_label
 _atom_site_symmetry_multiplicity
 _atom_site_fract_x
 _atom_site_fract_y
 _atom_site_fract_z
 _atom_site_occupancy
  Li  Li0  2  0.16333427  0.72723200  0.36752777  1.0
  Li  Li1  2  0.18182519  0.36986214  0.03971080  1.0
  Li  Li2  2  0.31553833  0.87918289  0.03973191  1.0
  Ga  Ga3  2  0.34111179  0.23022323  0.39006478  1.0
  B  B4  2  0.16907578  0.98640712  0.74705684  1.0
  B  B5  2  0.33680213  0.50119249  0.75220068  1.0
  O  O6  2  0.11955690  0.99502424  0.26648111  1.0
  O  O7  2  0.20257048  0.35697747  0.61099890  1.0
  O  O8  2  0.20953602  0.58473530  0.90527768  1.0
  O  O9  2  0.29746026  0.08338600  0.89709047  1.0
  O  O10  2  0.30168172  0.86123377  0.59641201  1.0
  O  O11  2  0.38342020  0.44782303  0.27131658  1.0
