# generated using pymatgen
data_Cs2Li2B2P4O15
_symmetry_space_group_name_H-M   P-1
_cell_length_a   7.19254467
_cell_length_b   7.94063038
_cell_length_c   14.22608018
_cell_angle_alpha   86.38179547
_cell_angle_beta   76.33112922
_cell_angle_gamma   66.86477228
_symmetry_Int_Tables_number   2
_chemical_formula_structural   Cs2Li2B2P4O15
_chemical_formula_sum   'Cs4 Li4 B4 P8 O30'
_cell_volume   725.59436858
_cell_formula_units_Z   2
loop_
 _symmetry_equiv_pos_site_id
 _symmetry_equiv_pos_as_xyz
  1  'x, y, z'
  2  '-x, -y, -z'
loop_
 _atom_site_type_symbol
 _atom_site_label
 _atom_site_symmetry_multiplicity
 _atom_site_fract_x
 _atom_site_fract_y
 _atom_site_fract_z
 _atom_site_occupancy
  Cs  Cs0  2  0.10088420  0.24319771  0.35070442  1.0
  Cs  Cs1  2  0.28287995  0.80873827  0.86619607  1.0
  Li  Li2  2  0.22073678  0.22889939  0.01049721  1.0
  Li  Li3  2  0.29463614  0.25210432  0.77471340  1.0
  B  B4  2  0.13040269  0.72762625  0.28502448  1.0
  B  B5  2  0.46580344  0.75732974  0.51017146  1.0
  P  P6  2  0.15949129  0.58617604  0.10977449  1.0
  P  P7  2  0.26872196  0.10197455  0.59818466  1.0
  P  P8  2  0.34244040  0.84738708  0.12841608  1.0
  P  P9  2  0.47658463  0.53278589  0.36014090  1.0
  O  O10  2  0.02328710  0.68313574  0.04129510  1.0
  O  O11  2  0.02552284  0.18157015  0.62750103  1.0
  O  O12  2  0.03492568  0.67053395  0.21776847  1.0
  O  O13  2  0.21431014  0.00169862  0.07389483  1.0
  O  O14  2  0.22390631  0.85833447  0.23964057  1.0
  O  O15  2  0.24881080  0.37914263  0.10857539  1.0
  O  O16  2  0.28752788  0.55897647  0.31459138  1.0
  O  O17  2  0.31772293  0.94391031  0.52318677  1.0
  O  O18  2  0.32021667  0.25654180  0.53452314  1.0
  O  O19  2  0.33891172  0.45614396  0.71232489  1.0
  O  O20  2  0.35731035  0.64982524  0.09075240  1.0
  O  O21  2  0.37339168  0.04770830  0.68174858  1.0
  O  O22  2  0.38567609  0.67106040  0.44908853  1.0
  O  O23  2  0.43525404  0.17268084  0.88001711  1.0
  O  O24  2  0.46433266  0.66841952  0.60334757  1.0
