# generated using pymatgen
data_Li6PS5I
_symmetry_space_group_name_H-M   Cc
_cell_length_a   12.55188362
_cell_length_b   7.26231244
_cell_length_c   12.35940668
_cell_angle_alpha   90.00000000
_cell_angle_beta   109.42522266
_cell_angle_gamma   90.00000000
_symmetry_Int_Tables_number   9
_chemical_formula_structural   Li6PS5I
_chemical_formula_sum   'Li24 P4 S20 I4'
_cell_volume   1062.49845400
_cell_formula_units_Z   4
loop_
 _symmetry_equiv_pos_site_id
 _symmetry_equiv_pos_as_xyz
  1  'x, y, z'
  2  'x, -y, z+1/2'
  3  'x+1/2, y+1/2, z'
  4  'x+1/2, -y+1/2, z+1/2'
loop_
 _atom_site_type_symbol
 _atom_site_label
 _atom_site_symmetry_multiplicity
 _atom_site_fract_x
 _atom_site_fract_y
 _atom_site_fract_z
 _atom_site_occupancy
  Li  Li0  4  0.00243622  0.31556852  0.60531371  1.0
  Li  Li1  4  0.01393177  0.06178965  0.35033169  1.0
  Li  Li2  4  0.01562513  0.45363495  0.35253780  1.0
  Li  Li3  4  0.18621933  0.00934950  0.11568772  1.0
  Li  Li4  4  0.20733821  0.49089743  0.11661299  1.0
  Li  Li5  4  0.28714902  0.24968625  0.44282488  1.0
  P  P6  4  0.25016615  0.24526744  0.87673136  1.0
  S  S7  4  0.07546435  0.24294649  0.81303617  1.0
  S  S8  4  0.12348347  0.25567783  0.49981969  1.0
  S  S9  4  0.30207738  0.24059118  0.05387847  1.0
  S  S10  4  0.30956470  0.01262794  0.81957324  1.0
  S  S11  4  0.31056821  0.48069567  0.82331414  1.0
  I  I12  4  0.00653975  0.26698524  0.13434008  1.0
