# generated using pymatgen
data_KLi4NbO5
_symmetry_space_group_name_H-M   P-1
_cell_length_a   5.80238518
_cell_length_b   5.95458251
_cell_length_c   8.35631740
_cell_angle_alpha   81.29310355
_cell_angle_beta   79.41018618
_cell_angle_gamma   60.82967592
_symmetry_Int_Tables_number   2
_chemical_formula_structural   KLi4NbO5
_chemical_formula_sum   'K2 Li8 Nb2 O10'
_cell_volume   247.16353783
_cell_formula_units_Z   2
loop_
 _symmetry_equiv_pos_site_id
 _symmetry_equiv_pos_as_xyz
  1  'x, y, z'
  2  '-x, -y, -z'
loop_
 _atom_site_type_symbol
 _atom_site_label
 _atom_site_symmetry_multiplicity
 _atom_site_fract_x
 _atom_site_fract_y
 _atom_site_fract_z
 _atom_site_occupancy
  K  K0  2  0.15204835  0.22879351  0.41610317  1.0
  Li  Li1  2  0.20590000  0.38047880  0.91333027  1.0
  Li  Li2  2  0.29830534  0.61104530  0.10178929  1.0
  Li  Li3  2  0.33958061  0.99631104  0.11629348  1.0
  Li  Li4  2  0.45147226  0.66549610  0.38539098  1.0
  Nb  Nb5  2  0.20829406  0.93530345  0.80205824  1.0
  O  O6  2  0.02069223  0.75593483  0.95348770  1.0
  O  O7  2  0.13670315  0.83747846  0.27960454  1.0
  O  O8  2  0.33983790  0.17741381  0.72502150  1.0
  O  O9  2  0.36412242  0.71763866  0.63025806  1.0
  O  O10  2  0.49893249  0.24080129  0.05031116  1.0
