# generated using pymatgen
data_RbLi7(SiO4)2
_symmetry_space_group_name_H-M   C2/m
_cell_length_a   15.78508450
_cell_length_b   6.40518383
_cell_length_c   7.83925790
_cell_angle_alpha   90.00000000
_cell_angle_beta   90.58446263
_cell_angle_gamma   90.00000000
_symmetry_Int_Tables_number   12
_chemical_formula_structural   RbLi7(SiO4)2
_chemical_formula_sum   'Rb4 Li28 Si8 O32'
_cell_volume   792.55765718
_cell_formula_units_Z   4
loop_
 _symmetry_equiv_pos_site_id
 _symmetry_equiv_pos_as_xyz
  1  'x, y, z'
  2  '-x, -y, -z'
  3  '-x, y, -z'
  4  'x, -y, z'
  5  'x+1/2, y+1/2, z'
  6  '-x+1/2, -y+1/2, -z'
  7  '-x+1/2, y+1/2, -z'
  8  'x+1/2, -y+1/2, z'
loop_
 _atom_site_type_symbol
 _atom_site_label
 _atom_site_symmetry_multiplicity
 _atom_site_fract_x
 _atom_site_fract_y
 _atom_site_fract_z
 _atom_site_occupancy
  Rb  Rb0  4  0.24477215  0.00000000  0.46823979  1.0
  Li  Li1  8  0.06594736  0.25550382  0.63155759  1.0
  Li  Li2  8  0.18459228  0.25890262  0.12622859  1.0
  Li  Li3  4  0.06696433  0.00000000  0.28768075  1.0
  Li  Li4  4  0.14201726  0.50000000  0.86599306  1.0
  Li  Li5  2  0.00000000  0.00000000  0.00000000  1.0
  Li  Li6  2  0.00000000  0.50000000  0.00000000  1.0
  Si  Si7  4  0.07030630  0.50000000  0.29315564  1.0
  Si  Si8  4  0.14650932  0.00000000  0.86117151  1.0
  O  O9  8  0.09682178  0.28187055  0.39547901  1.0
  O  O10  8  0.19687744  0.21856696  0.80949214  1.0
  O  O11  4  0.03276162  0.50000000  0.75132155  1.0
  O  O12  4  0.05271876  0.00000000  0.76281173  1.0
  O  O13  4  0.11612024  0.50000000  0.10344146  1.0
  O  O14  4  0.12665476  0.00000000  0.06900683  1.0
