# generated using pymatgen
data_Li6Y(BO3)3
_symmetry_space_group_name_H-M   P2_1/c
_cell_length_a   7.23211397
_cell_length_b   16.47237338
_cell_length_c   6.70519660
_cell_angle_alpha   90.00000000
_cell_angle_beta   105.47883952
_cell_angle_gamma   90.00000000
_symmetry_Int_Tables_number   14
_chemical_formula_structural   Li6Y(BO3)3
_chemical_formula_sum   'Li24 Y4 B12 O36'
_cell_volume   769.81775105
_cell_formula_units_Z   4
loop_
 _symmetry_equiv_pos_site_id
 _symmetry_equiv_pos_as_xyz
  1  'x, y, z'
  2  '-x, -y, -z'
  3  '-x, y+1/2, -z+1/2'
  4  'x, -y+1/2, z+1/2'
loop_
 _atom_site_type_symbol
 _atom_site_label
 _atom_site_symmetry_multiplicity
 _atom_site_fract_x
 _atom_site_fract_y
 _atom_site_fract_z
 _atom_site_occupancy
  Li  Li0  4  0.07056120  0.50339323  0.17537525  1.0
  Li  Li1  4  0.13920825  0.55160130  0.58149813  1.0
  Li  Li2  4  0.28480775  0.70647304  0.63575925  1.0
  Li  Li3  4  0.30695682  0.03665876  0.44359033  1.0
  Li  Li4  4  0.43908456  0.20479114  0.45232457  1.0
  Li  Li5  4  0.45217964  0.53015301  0.32925603  1.0
  Y  Y6  4  0.08016627  0.18979221  0.65214606  1.0
  B  B7  4  0.08363334  0.13546238  0.16133725  1.0
  B  B8  4  0.28571767  0.62085357  0.00096435  1.0
  B  B9  4  0.43990618  0.11494973  0.81065005  1.0
  O  O10  4  0.00799855  0.17376654  0.97125372  1.0
  O  O11  4  0.08683622  0.05291046  0.17645730  1.0
  O  O12  4  0.11944836  0.57421326  0.96094844  1.0
  O  O13  4  0.14665396  0.18538396  0.33363831  1.0
  O  O14  4  0.25958571  0.70245759  0.94388695  1.0
  O  O15  4  0.27625942  0.06861466  0.72762359  1.0
  O  O16  4  0.39447598  0.57784644  0.57630664  1.0
  O  O17  4  0.42274220  0.19791935  0.77200745  1.0
  O  O18  4  0.46341005  0.58858630  0.08780499  1.0
