# generated using pymatgen
data_Li2Mg2(SO4)3
_symmetry_space_group_name_H-M   Pbcn
_cell_length_a   12.35395746
_cell_length_b   8.64394779
_cell_length_c   8.79947960
_cell_angle_alpha   90.00000000
_cell_angle_beta   90.00000000
_cell_angle_gamma   90.00000000
_symmetry_Int_Tables_number   60
_chemical_formula_structural   Li2Mg2(SO4)3
_chemical_formula_sum   'Li8 Mg8 S12 O48'
_cell_volume   939.66970575
_cell_formula_units_Z   4
loop_
 _symmetry_equiv_pos_site_id
 _symmetry_equiv_pos_as_xyz
  1  'x, y, z'
  2  '-x, -y, -z'
  3  '-x+1/2, -y+1/2, z+1/2'
  4  'x+1/2, y+1/2, -z+1/2'
  5  'x+1/2, -y+1/2, -z'
  6  '-x+1/2, y+1/2, z'
  7  '-x, y, -z+1/2'
  8  'x, -y, z+1/2'
loop_
 _atom_site_type_symbol
 _atom_site_label
 _atom_site_symmetry_multiplicity
 _atom_site_fract_x
 _atom_site_fract_y
 _atom_site_fract_z
 _atom_site_occupancy
  Li  Li0  8  0.18165059  0.28524609  0.77643620  1.0
  Mg  Mg1  8  0.10905743  0.24533885  0.45824441  1.0
  S  S2  8  0.14848793  0.39406836  0.10382063  1.0
  S  S3  4  0.00000000  0.04794138  0.75000000  1.0
  O  O4  8  0.03674427  0.34967127  0.06664126  1.0
  O  O5  8  0.06218790  0.04562798  0.35911778  1.0
  O  O6  8  0.07849527  0.15195297  0.66876012  1.0
  O  O7  8  0.15902197  0.43354845  0.60732120  1.0
  O  O8  8  0.18093048  0.33160166  0.25641022  1.0
  O  O9  8  0.22350355  0.33017364  0.98513292  1.0
