# generated using pymatgen
data_LiAlSe2
_symmetry_space_group_name_H-M   Pna2_1
_cell_length_a   6.88612790
_cell_length_b   8.35478094
_cell_length_c   6.59611139
_cell_angle_alpha   90.00000000
_cell_angle_beta   90.00000000
_cell_angle_gamma   90.00000000
_symmetry_Int_Tables_number   33
_chemical_formula_structural   LiAlSe2
_chemical_formula_sum   'Li4 Al4 Se8'
_cell_volume   379.48807475
_cell_formula_units_Z   4
loop_
 _symmetry_equiv_pos_site_id
 _symmetry_equiv_pos_as_xyz
  1  'x, y, z'
  2  '-x, -y, z+1/2'
  3  '-x+1/2, y+1/2, z+1/2'
  4  'x+1/2, -y+1/2, z'
loop_
 _atom_site_type_symbol
 _atom_site_label
 _atom_site_symmetry_multiplicity
 _atom_site_fract_x
 _atom_site_fract_y
 _atom_site_fract_z
 _atom_site_occupancy
  Li  Li0  4  0.08558204  0.62031286  0.00344069  1.0
  Al  Al1  4  0.07288039  0.12564160  0.99953639  1.0
  Se  Se2  4  0.06461701  0.11763885  0.63210337  1.0
  Se  Se3  4  0.09308039  0.63618415  0.61472022  1.0
