# generated using pymatgen
data_Li3Sc(BO3)2
_symmetry_space_group_name_H-M   P2_1/c
_cell_length_a   4.79805178
_cell_length_b   5.99124116
_cell_length_c   9.47081311
_cell_angle_alpha   90.00000000
_cell_angle_beta   119.74289230
_cell_angle_gamma   90.00000000
_symmetry_Int_Tables_number   14
_chemical_formula_structural   Li3Sc(BO3)2
_chemical_formula_sum   'Li6 Sc2 B4 O12'
_cell_volume   236.38448865
_cell_formula_units_Z   2
loop_
 _symmetry_equiv_pos_site_id
 _symmetry_equiv_pos_as_xyz
  1  'x, y, z'
  2  '-x, -y, -z'
  3  '-x, y+1/2, -z+1/2'
  4  'x, -y+1/2, z+1/2'
loop_
 _atom_site_type_symbol
 _atom_site_label
 _atom_site_symmetry_multiplicity
 _atom_site_fract_x
 _atom_site_fract_y
 _atom_site_fract_z
 _atom_site_occupancy
  Li  Li0  4  0.31160072  0.24790118  0.29729413  1.0
  Li  Li1  2  0.00000000  0.00000000  0.50000000  1.0
  Sc  Sc2  2  0.00000000  0.00000000  0.00000000  1.0
  B  B3  4  0.38961619  0.69503193  0.87504788  1.0
  O  O4  4  0.12085259  0.73594847  0.88891559  1.0
  O  O5  4  0.30894491  0.24653801  0.99794366  1.0
  O  O6  4  0.36875110  0.58667104  0.74028342  1.0
