# generated using pymatgen
data_LiSi2BO6
_symmetry_space_group_name_H-M   P2_1
_cell_length_a   5.08868926
_cell_length_b   13.29099163
_cell_length_c   13.50482644
_cell_angle_alpha   90.00000000
_cell_angle_beta   90.17049356
_cell_angle_gamma   90.00000000
_symmetry_Int_Tables_number   4
_chemical_formula_structural   LiSi2BO6
_chemical_formula_sum   'Li8 Si16 B8 O48'
_cell_volume   913.37769322
_cell_formula_units_Z   8
loop_
 _symmetry_equiv_pos_site_id
 _symmetry_equiv_pos_as_xyz
  1  'x, y, z'
  2  '-x, y+1/2, -z'
loop_
 _atom_site_type_symbol
 _atom_site_label
 _atom_site_symmetry_multiplicity
 _atom_site_fract_x
 _atom_site_fract_y
 _atom_site_fract_z
 _atom_site_occupancy
  Li  Li0  2  0.09078088  0.65955788  0.02764686  1.0
  Li  Li1  2  0.15904221  0.93825815  0.22519595  1.0
  Li  Li2  2  0.35121312  0.44231979  0.28850915  1.0
  Li  Li3  2  0.39808714  0.16890185  0.46350673  1.0
  Si  Si4  2  0.00352478  0.23101251  0.26985261  1.0
  Si  Si5  2  0.05945452  0.14053599  0.66737407  1.0
  Si  Si6  2  0.17664952  0.37251913  0.97655763  1.0
  Si  Si7  2  0.24532237  0.87600420  0.51925517  1.0
  Si  Si8  2  0.26201711  0.46521456  0.58200359  1.0
  Si  Si9  2  0.31409863  0.96259149  0.91740353  1.0
  Si  Si10  2  0.43005752  0.72945705  0.22754029  1.0
  Si  Si11  2  0.49743312  0.14036364  0.16795900  1.0
  B  B12  2  0.10145102  0.66791895  0.53655483  1.0
  B  B13  2  0.14889531  0.93781838  0.71390622  1.0
  B  B14  2  0.33955533  0.43543284  0.78734932  1.0
  B  B15  2  0.41042864  0.16772406  0.96270692  1.0
  O  O16  2  0.02495526  0.52683949  0.29785155  1.0
  O  O17  2  0.03825357  0.35339344  0.27440933  1.0
  O  O18  2  0.05616151  0.40505968  0.51035710  1.0
  O  O19  2  0.07830525  0.18146632  0.37776103  1.0
  O  O20  2  0.08048905  0.15277251  0.54723691  1.0
  O  O21  2  0.10248941  0.88520518  0.96600029  1.0
  O  O22  2  0.14401991  0.42439356  0.86693677  1.0
  O  O23  2  0.14958112  0.71962952  0.28507595  1.0
  O  O24  2  0.17490024  0.44841423  0.69718473  1.0
  O  O25  2  0.20413932  0.18646357  0.18696142  1.0
  O  O26  2  0.22069867  0.25152395  0.96738793  1.0
  O  O27  2  0.23731778  0.07787409  0.94974838  1.0
  O  O28  2  0.28203030  0.75406385  0.52284362  1.0
  O  O29  2  0.28496470  0.58319180  0.55019475  1.0
  O  O30  2  0.29569500  0.70096877  0.76131782  1.0
  O  O31  2  0.32526406  0.92517361  0.62674935  1.0
  O  O32  2  0.33319347  0.94805861  0.79747000  1.0
  O  O33  2  0.35149920  0.16883187  0.70807346  1.0
  O  O34  2  0.39584755  0.67826475  0.11789287  1.0
  O  O35  2  0.39641295  0.43240457  0.04082360  1.0
  O  O36  2  0.42235793  0.65860745  0.94765365  1.0
  O  O37  2  0.44329455  0.91939531  0.43464055  1.0
  O  O38  2  0.47745005  0.84984627  0.21907393  1.0
  O  O39  2  0.47912633  0.02168334  0.19822032  1.0
