# generated using pymatgen
data_LiGaI4
_symmetry_space_group_name_H-M   P2_1/c
_cell_length_a   8.14774646
_cell_length_b   8.09700248
_cell_length_c   16.15553067
_cell_angle_alpha   90.00000000
_cell_angle_beta   93.98493881
_cell_angle_gamma   90.00000000
_symmetry_Int_Tables_number   14
_chemical_formula_structural   LiGaI4
_chemical_formula_sum   'Li4 Ga4 I16'
_cell_volume   1063.24111984
_cell_formula_units_Z   4
loop_
 _symmetry_equiv_pos_site_id
 _symmetry_equiv_pos_as_xyz
  1  'x, y, z'
  2  '-x, -y, -z'
  3  '-x, y+1/2, -z+1/2'
  4  'x, -y+1/2, z+1/2'
loop_
 _atom_site_type_symbol
 _atom_site_label
 _atom_site_symmetry_multiplicity
 _atom_site_fract_x
 _atom_site_fract_y
 _atom_site_fract_z
 _atom_site_occupancy
  Li  Li0  4  0.34166549  0.53208352  0.59650022  1.0
  Ga  Ga1  4  0.20813110  0.15282304  0.90176004  1.0
  I  I2  4  0.06750442  0.66765271  0.68659482  1.0
  I  I3  4  0.19118688  0.21706902  0.54686918  1.0
  I  I4  4  0.31547327  0.64898998  0.42828547  1.0
  I  I5  4  0.44212440  0.21361365  0.32301035  1.0
