# generated using pymatgen
data_Li2S2O7
_symmetry_space_group_name_H-M   Pnma
_cell_length_a   13.37454770
_cell_length_b   8.36580770
_cell_length_c   4.97294595
_cell_angle_alpha   90.00000000
_cell_angle_beta   90.00000000
_cell_angle_gamma   90.00000000
_symmetry_Int_Tables_number   62
_chemical_formula_structural   Li2S2O7
_chemical_formula_sum   'Li8 S8 O28'
_cell_volume   556.41742286
_cell_formula_units_Z   4
loop_
 _symmetry_equiv_pos_site_id
 _symmetry_equiv_pos_as_xyz
  1  'x, y, z'
  2  '-x, -y, -z'
  3  '-x+1/2, -y, z+1/2'
  4  'x+1/2, y, -z+1/2'
  5  'x+1/2, -y+1/2, -z+1/2'
  6  '-x+1/2, y+1/2, z+1/2'
  7  '-x, y+1/2, -z'
  8  'x, -y+1/2, z'
loop_
 _atom_site_type_symbol
 _atom_site_label
 _atom_site_symmetry_multiplicity
 _atom_site_fract_x
 _atom_site_fract_y
 _atom_site_fract_z
 _atom_site_occupancy
  Li  Li0  8  0.10485138  0.56948273  0.10239407  1.0
  S  S1  4  0.00066816  0.25000000  0.38364815  1.0
  S  S2  4  0.21332028  0.25000000  0.28435300  1.0
  O  O3  8  0.01060657  0.60309418  0.77598609  1.0
  O  O4  8  0.20370544  0.10273655  0.13095881  1.0
  O  O5  4  0.05834122  0.75000000  0.36759757  1.0
  O  O6  4  0.11455654  0.25000000  0.50122920  1.0
  O  O7  4  0.20359358  0.75000000  0.97626206  1.0
