# generated using pymatgen
data_LiReO4
_symmetry_space_group_name_H-M   P-1
_cell_length_a   7.06360248
_cell_length_b   8.64242519
_cell_length_c   10.11454292
_cell_angle_alpha   99.57693574
_cell_angle_beta   105.74282408
_cell_angle_gamma   102.34936518
_symmetry_Int_Tables_number   2
_chemical_formula_structural   LiReO4
_chemical_formula_sum   'Li6 Re6 O24'
_cell_volume   563.76959843
_cell_formula_units_Z   6
loop_
 _symmetry_equiv_pos_site_id
 _symmetry_equiv_pos_as_xyz
  1  'x, y, z'
  2  '-x, -y, -z'
loop_
 _atom_site_type_symbol
 _atom_site_label
 _atom_site_symmetry_multiplicity
 _atom_site_fract_x
 _atom_site_fract_y
 _atom_site_fract_z
 _atom_site_occupancy
  Li  Li0  2  0.03945624  0.22580109  0.96936007  1.0
  Li  Li1  2  0.25060023  0.80602805  0.58558380  1.0
  Li  Li2  2  0.46419171  0.37276773  0.21927897  1.0
  Re  Re3  2  0.00304364  0.52103428  0.74263501  1.0
  Re  Re4  2  0.19999217  0.08746747  0.34679410  1.0
  Re  Re5  2  0.48627867  0.22673131  0.87396881  1.0
  O  O6  2  0.05657689  0.38675283  0.85211300  1.0
  O  O7  2  0.05705874  0.98788503  0.17195307  1.0
  O  O8  2  0.05900182  0.19650433  0.42216958  1.0
  O  O9  2  0.13432575  0.35687386  0.17957121  1.0
  O  O10  2  0.15614781  0.59227412  0.41974662  1.0
  O  O11  2  0.22707117  0.63730463  0.73581340  1.0
  O  O12  2  0.25804183  0.94394028  0.43644458  1.0
  O  O13  2  0.26042720  0.76861097  0.04766527  1.0
  O  O14  2  0.35870506  0.04197044  0.75487867  1.0
  O  O15  2  0.36945138  0.24750221  0.00647145  1.0
  O  O16  2  0.43160307  0.21829083  0.35235506  1.0
  O  O17  2  0.47649791  0.38716927  0.79483519  1.0
