# generated using pymatgen
data_Sr3Li6Ta2O11
_symmetry_space_group_name_H-M   Pmma
_cell_length_a   10.64843950
_cell_length_b   8.40900079
_cell_length_c   5.86848248
_cell_angle_alpha   90.00000000
_cell_angle_beta   90.00000000
_cell_angle_gamma   90.00000000
_symmetry_Int_Tables_number   51
_chemical_formula_structural   Sr3Li6Ta2O11
_chemical_formula_sum   'Sr6 Li12 Ta4 O22'
_cell_volume   525.47997866
_cell_formula_units_Z   2
loop_
 _symmetry_equiv_pos_site_id
 _symmetry_equiv_pos_as_xyz
  1  'x, y, z'
  2  '-x, -y, -z'
  3  '-x+1/2, -y, z'
  4  'x+1/2, y, -z'
  5  'x+1/2, -y, -z'
  6  '-x+1/2, y, z'
  7  '-x, y, -z'
  8  'x, -y, z'
loop_
 _atom_site_type_symbol
 _atom_site_label
 _atom_site_symmetry_multiplicity
 _atom_site_fract_x
 _atom_site_fract_y
 _atom_site_fract_z
 _atom_site_occupancy
  Sr  Sr0  4  0.00000000  0.26106269  0.50000000  1.0
  Sr  Sr1  2  0.25000000  0.00000000  0.61872466  1.0
  Li  Li2  4  0.00000000  0.35403384  0.00000000  1.0
  Li  Li3  4  0.25000000  0.14454634  0.15298015  1.0
  Li  Li4  4  0.25000000  0.31398720  0.78520128  1.0
  Ta  Ta5  2  0.00000000  0.00000000  0.00000000  1.0
  Ta  Ta6  2  0.25000000  0.50000000  0.26727332  1.0
  O  O7  8  0.10990427  0.17364732  0.86642119  1.0
  O  O8  4  0.06121025  0.50000000  0.25021885  1.0
  O  O9  4  0.10773983  0.00000000  0.28075371  1.0
  O  O10  4  0.25000000  0.30265912  0.43372017  1.0
  O  O11  2  0.25000000  0.50000000  0.94558982  1.0
