# generated using pymatgen
data_Cs3Li2Br5
_symmetry_space_group_name_H-M   Imm2
_cell_length_a   4.44528704
_cell_length_b   25.54578716
_cell_length_c   6.27406065
_cell_angle_alpha   90.00000000
_cell_angle_beta   90.00000000
_cell_angle_gamma   90.00000000
_symmetry_Int_Tables_number   44
_chemical_formula_structural   Cs3Li2Br5
_chemical_formula_sum   'Cs6 Li4 Br10'
_cell_volume   712.47201718
_cell_formula_units_Z   2
loop_
 _symmetry_equiv_pos_site_id
 _symmetry_equiv_pos_as_xyz
  1  'x, y, z'
  2  '-x, -y, z'
  3  '-x, y, z'
  4  'x, -y, z'
  5  'x+1/2, y+1/2, z+1/2'
  6  '-x+1/2, -y+1/2, z+1/2'
  7  '-x+1/2, y+1/2, z+1/2'
  8  'x+1/2, -y+1/2, z+1/2'
loop_
 _atom_site_type_symbol
 _atom_site_label
 _atom_site_symmetry_multiplicity
 _atom_site_fract_x
 _atom_site_fract_y
 _atom_site_fract_z
 _atom_site_occupancy
  Cs  Cs0  4  0.00000000  0.37718071  0.74228500  1.0
  Cs  Cs1  2  0.00000000  0.50000000  0.23820487  1.0
  Li  Li2  4  0.00000000  0.21574875  0.76650198  1.0
  Br  Br3  4  0.00000000  0.11811567  0.73000195  1.0
  Br  Br4  4  0.00000000  0.23887182  0.16196523  1.0
  Br  Br5  2  0.00000000  0.00000000  0.23497404  1.0
