# generated using pymatgen
data_Li2B3PO8
_symmetry_space_group_name_H-M   P-1
_cell_length_a   8.83317411
_cell_length_b   10.73480233
_cell_length_c   13.56584060
_cell_angle_alpha   92.93922797
_cell_angle_beta   90.40196710
_cell_angle_gamma   90.18900411
_symmetry_Int_Tables_number   2
_chemical_formula_structural   Li2B3PO8
_chemical_formula_sum   'Li16 B24 P8 O64'
_cell_volume   1284.61282311
_cell_formula_units_Z   8
loop_
 _symmetry_equiv_pos_site_id
 _symmetry_equiv_pos_as_xyz
  1  'x, y, z'
  2  '-x, -y, -z'
loop_
 _atom_site_type_symbol
 _atom_site_label
 _atom_site_symmetry_multiplicity
 _atom_site_fract_x
 _atom_site_fract_y
 _atom_site_fract_z
 _atom_site_occupancy
  Li  Li0  2  0.11761227  0.34402996  0.72262197  1.0
  Li  Li1  2  0.14129188  0.77187370  0.26016683  1.0
  Li  Li2  2  0.22319318  0.27111944  0.03218787  1.0
  Li  Li3  2  0.23978087  0.83236455  0.59577119  1.0
  Li  Li4  2  0.25490112  0.54494905  0.32156782  1.0
  Li  Li5  2  0.26310932  0.05015187  0.81715060  1.0
  Li  Li6  2  0.36478595  0.54120807  0.00666746  1.0
  Li  Li7  2  0.43062157  0.04569890  0.42343731  1.0
  B  B8  2  0.04774981  0.87830702  0.89655258  1.0
  B  B9  2  0.04847905  0.33120357  0.39729971  1.0
  B  B10  2  0.09001141  0.66316286  0.95140548  1.0
  B  B11  2  0.11807090  0.11516138  0.43323776  1.0
  B  B12  2  0.19512740  0.01644313  0.15029472  1.0
  B  B13  2  0.20114982  0.54920047  0.61876472  1.0
  B  B14  2  0.30170260  0.26331831  0.36258224  1.0
  B  B15  2  0.30494016  0.80405047  0.91684746  1.0
  B  B16  2  0.39107032  0.39018884  0.66010552  1.0
  B  B17  2  0.40855024  0.89433829  0.21381821  1.0
  B  B18  2  0.45110664  0.08968351  0.12899384  1.0
  B  B19  2  0.45410185  0.61713310  0.65813688  1.0
  P  P20  2  0.08386933  0.52695717  0.12287640  1.0
  P  P21  2  0.09423812  0.06701112  0.63470012  1.0
  P  P22  2  0.40778256  0.79647200  0.40049845  1.0
  P  P23  2  0.40907329  0.30258547  0.85763481  1.0
  O  O24  2  0.00409455  0.21532744  0.41981692  1.0
  O  O25  2  0.00831378  0.23136515  0.07553228  1.0
  O  O26  2  0.04150776  0.02558692  0.13316654  1.0
  O  O27  2  0.05037036  0.63807564  0.05346403  1.0
  O  O28  2  0.05050431  0.56864060  0.60395237  1.0
  O  O29  2  0.05892218  0.18018040  0.70285574  1.0
  O  O30  2  0.06490562  0.99480504  0.39397145  1.0
  O  O31  2  0.06653178  0.55533703  0.88061030  1.0
  O  O32  2  0.09205730  0.58782889  0.22800298  1.0
  O  O33  2  0.16715559  0.11057650  0.53614027  1.0
  O  O34  2  0.19823514  0.36091804  0.37140690  1.0
  O  O35  2  0.20169916  0.97776115  0.68112199  1.0
  O  O36  2  0.20463619  0.90038465  0.89534614  1.0
  O  O37  2  0.22141557  0.45164303  0.08831474  1.0
  O  O38  2  0.24602955  0.42891072  0.61735191  1.0
  O  O39  2  0.24782700  0.91540871  0.19578243  1.0
  O  O40  2  0.25277405  0.69317835  0.94591596  1.0
  O  O41  2  0.26044562  0.14474394  0.37950170  1.0
  O  O42  2  0.26953029  0.71833561  0.37174976  1.0
  O  O43  2  0.29290912  0.21309486  0.89837731  1.0
  O  O44  2  0.29482856  0.10770915  0.11845238  1.0
  O  O45  2  0.30244889  0.64837057  0.63755783  1.0
  O  O46  2  0.34226990  0.34681846  0.75677137  1.0
  O  O47  2  0.40077449  0.87510503  0.49864667  1.0
  O  O48  2  0.43842894  0.76786588  0.17078500  1.0
  O  O49  2  0.44033880  0.90050248  0.32248617  1.0
  O  O50  2  0.44921015  0.28238234  0.33508376  1.0
  O  O51  2  0.44970702  0.29050294  0.59400336  1.0
  O  O52  2  0.45180602  0.41389090  0.92523246  1.0
  O  O53  2  0.45884064  0.82000532  0.90860205  1.0
  O  O54  2  0.49438079  0.00942972  0.82717179  1.0
  O  O55  2  0.49947031  0.49788323  0.66939620  1.0
