# generated using pymatgen
data_LiB(SO4)2
_symmetry_space_group_name_H-M   Pc
_cell_length_a   7.81575947
_cell_length_b   9.59923708
_cell_length_c   8.57123918
_cell_angle_alpha   90.00000000
_cell_angle_beta   92.44008111
_cell_angle_gamma   90.00000000
_symmetry_Int_Tables_number   7
_chemical_formula_structural   LiB(SO4)2
_chemical_formula_sum   'Li4 B4 S8 O32'
_cell_volume   642.47696362
_cell_formula_units_Z   4
loop_
 _symmetry_equiv_pos_site_id
 _symmetry_equiv_pos_as_xyz
  1  'x, y, z'
  2  'x, -y, z+1/2'
loop_
 _atom_site_type_symbol
 _atom_site_label
 _atom_site_symmetry_multiplicity
 _atom_site_fract_x
 _atom_site_fract_y
 _atom_site_fract_z
 _atom_site_occupancy
  Li  Li0  2  0.23530632  0.12604561  0.53547228  1.0
  Li  Li1  2  0.72279139  0.33594775  0.36860995  1.0
  B  B2  2  0.21844134  0.39483334  0.01950619  1.0
  B  B3  2  0.73170221  0.14521120  0.89623082  1.0
  S  S4  2  0.08271461  0.15932552  0.88305204  1.0
  S  S5  2  0.12082397  0.39063489  0.32412415  1.0
  S  S6  2  0.57184457  0.37426199  0.01364225  1.0
  S  S7  2  0.64419713  0.06213968  0.59432004  1.0
  O  O8  2  0.08687636  0.01563349  0.93402751  1.0
  O  O9  2  0.09536634  0.47347426  0.91809578  1.0
  O  O10  2  0.15982749  0.19222274  0.73701321  1.0
  O  O11  2  0.16985903  0.24589568  0.01784894  1.0
  O  O12  2  0.21597816  0.44630235  0.18162318  1.0
  O  O13  2  0.23245064  0.29443445  0.41001093  1.0
  O  O14  2  0.38976440  0.42137189  0.95983722  1.0
  O  O15  2  0.46289209  0.04050546  0.56014384  1.0
  O  O16  2  0.57674933  0.32274584  0.17286658  1.0
  O  O17  2  0.59569931  0.25201954  0.89657215  1.0
  O  O18  2  0.68300061  0.04490968  0.77200615  1.0
  O  O19  2  0.68637905  0.48737727  0.97913437  1.0
  O  O20  2  0.71784675  0.18977124  0.53641350  1.0
  O  O21  2  0.74806919  0.06652442  0.04320113  1.0
  O  O22  2  0.89636132  0.21632881  0.87282185  1.0
  O  O23  2  0.95075905  0.34183005  0.27813332  1.0
