# generated using pymatgen
data_Li5B(SO4)4
_symmetry_space_group_name_H-M   P2_1/c
_cell_length_a   8.18348758
_cell_length_b   10.34941594
_cell_length_c   15.47361155
_cell_angle_alpha   90.00000000
_cell_angle_beta   106.16255025
_cell_angle_gamma   90.00000000
_symmetry_Int_Tables_number   14
_chemical_formula_structural   Li5B(SO4)4
_chemical_formula_sum   'Li20 B4 S16 O64'
_cell_volume   1258.72947646
_cell_formula_units_Z   4
loop_
 _symmetry_equiv_pos_site_id
 _symmetry_equiv_pos_as_xyz
  1  'x, y, z'
  2  '-x, -y, -z'
  3  '-x, y+1/2, -z+1/2'
  4  'x, -y+1/2, z+1/2'
loop_
 _atom_site_type_symbol
 _atom_site_label
 _atom_site_symmetry_multiplicity
 _atom_site_fract_x
 _atom_site_fract_y
 _atom_site_fract_z
 _atom_site_occupancy
  Li  Li0  4  0.00873842  0.15631312  0.90175065  1.0
  Li  Li1  4  0.09618440  0.11466560  0.68489910  1.0
  Li  Li2  4  0.11525091  0.69335157  0.29874071  1.0
  Li  Li3  4  0.29851493  0.12460727  0.52690739  1.0
  Li  Li4  4  0.39238397  0.71183735  0.48518964  1.0
  B  B5  4  0.47260072  0.04961917  0.23991838  1.0
  S  S6  4  0.18599470  0.12747837  0.11139609  1.0
  S  S7  4  0.24488433  0.62878039  0.12687319  1.0
  S  S8  4  0.31286311  0.55114366  0.86413462  1.0
  S  S9  4  0.32381687  0.04202474  0.86237966  1.0
  O  O10  4  0.10273679  0.19410779  0.17281622  1.0
  O  O11  4  0.12498280  0.68670055  0.17373071  1.0
  O  O12  4  0.12689964  0.50453043  0.59019557  1.0
  O  O13  4  0.15288303  0.62657075  0.83847218  1.0
  O  O14  4  0.15810912  0.10668411  0.82160542  1.0
  O  O15  4  0.17321918  0.20703668  0.02981324  1.0
  O  O16  4  0.20500014  0.00787911  0.60630211  1.0
  O  O17  4  0.24460974  0.70730880  0.04772757  1.0
  O  O18  4  0.29312506  0.07206836  0.40611106  1.0
  O  O19  4  0.29459075  0.59521477  0.38221376  1.0
  O  O20  4  0.34900521  0.52614730  0.77183888  1.0
  O  O21  4  0.38211703  0.12694971  0.16041866  1.0
  O  O22  4  0.41097215  0.04564877  0.78405899  1.0
  O  O23  4  0.42937759  0.64220207  0.19154866  1.0
  O  O24  4  0.43076388  0.11071559  0.93898299  1.0
  O  O25  4  0.45352950  0.63172255  0.91896267  1.0
