# generated using pymatgen
data_LiGaCl3
_symmetry_space_group_name_H-M   P2_1/c
_cell_length_a   6.56182629
_cell_length_b   15.62047562
_cell_length_c   11.87511177
_cell_angle_alpha   90.00000000
_cell_angle_beta   119.76045628
_cell_angle_gamma   90.00000000
_symmetry_Int_Tables_number   14
_chemical_formula_structural   LiGaCl3
_chemical_formula_sum   'Li8 Ga8 Cl24'
_cell_volume   1056.64856618
_cell_formula_units_Z   8
loop_
 _symmetry_equiv_pos_site_id
 _symmetry_equiv_pos_as_xyz
  1  'x, y, z'
  2  '-x, -y, -z'
  3  '-x, y+1/2, -z+1/2'
  4  'x, -y+1/2, z+1/2'
loop_
 _atom_site_type_symbol
 _atom_site_label
 _atom_site_symmetry_multiplicity
 _atom_site_fract_x
 _atom_site_fract_y
 _atom_site_fract_z
 _atom_site_occupancy
  Li  Li0  4  0.19652483  0.14259183  0.46592569  1.0
  Li  Li1  4  0.19747248  0.64718943  0.49442554  1.0
  Ga  Ga2  4  0.14511760  0.15212372  0.77629296  1.0
  Ga  Ga3  4  0.30731341  0.01562937  0.76217396  1.0
  Cl  Cl4  4  0.06965616  0.23001235  0.59138774  1.0
  Cl  Cl5  4  0.10186027  0.60358844  0.25865337  1.0
  Cl  Cl6  4  0.17656909  0.67183606  0.70937447  1.0
  Cl  Cl7  4  0.32042988  0.00388741  0.07554635  1.0
  Cl  Cl8  4  0.32872772  0.00667716  0.57789562  1.0
  Cl  Cl9  4  0.42673314  0.23805208  0.93408982  1.0
