# generated using pymatgen
data_LiAlSiO4
_symmetry_space_group_name_H-M   P6_422
_cell_length_a   10.58173017
_cell_length_b   10.58173017
_cell_length_c   11.42481824
_cell_angle_alpha   90.00000000
_cell_angle_beta   90.00000000
_cell_angle_gamma   120.00000000
_symmetry_Int_Tables_number   181
_chemical_formula_structural   LiAlSiO4
_chemical_formula_sum   'Li12 Al12 Si12 O48'
_cell_volume   1107.88146593
_cell_formula_units_Z   12
loop_
 _symmetry_equiv_pos_site_id
 _symmetry_equiv_pos_as_xyz
  1  'x, y, z'
  2  'x-y, x, z+2/3'
  3  '-y, x-y, z+1/3'
  4  '-x, -y, z'
  5  '-x+y, -x, z+2/3'
  6  'y, -x+y, z+1/3'
  7  '-y, -x, -z+1/3'
  8  '-x, -x+y, -z+2/3'
  9  '-x+y, y, -z'
  10  'y, x, -z+1/3'
  11  'x, x-y, -z+2/3'
  12  'x-y, -y, -z'
loop_
 _atom_site_type_symbol
 _atom_site_label
 _atom_site_symmetry_multiplicity
 _atom_site_fract_x
 _atom_site_fract_y
 _atom_site_fract_z
 _atom_site_occupancy
  Li  Li0  6  0.00000000  0.50000000  0.16135443  1.0
  Li  Li1  3  0.00000000  0.00000000  0.00000000  1.0
  Li  Li2  3  0.00000000  0.50000000  0.83333333  1.0
  Al  Al3  6  0.00000000  0.25070282  0.33333333  1.0
  Al  Al4  6  0.25136011  0.50272022  0.00000000  1.0
  Si  Si5  6  0.00000000  0.24750244  0.83333333  1.0
  Si  Si6  6  0.24798804  0.49597607  0.50000000  1.0
  O  O7  12  0.08580755  0.19721106  0.74212056  1.0
  O  O8  12  0.09598113  0.39938166  0.42749378  1.0
  O  O9  12  0.10618003  0.40015124  0.90324295  1.0
  O  O10  12  0.19956782  0.59091637  0.58258408  1.0
