# generated using pymatgen
data_Li2ZnSnSe4
_symmetry_space_group_name_H-M   Pc
_cell_length_a   6.79588509
_cell_length_b   7.11860341
_cell_length_c   10.83160399
_cell_angle_alpha   90.00000000
_cell_angle_beta   128.95221203
_cell_angle_gamma   90.00000000
_symmetry_Int_Tables_number   7
_chemical_formula_structural   Li2ZnSnSe4
_chemical_formula_sum   'Li4 Zn2 Sn2 Se8'
_cell_volume   407.50155306
_cell_formula_units_Z   2
loop_
 _symmetry_equiv_pos_site_id
 _symmetry_equiv_pos_as_xyz
  1  'x, y, z'
  2  'x, -y, z+1/2'
loop_
 _atom_site_type_symbol
 _atom_site_label
 _atom_site_symmetry_multiplicity
 _atom_site_fract_x
 _atom_site_fract_y
 _atom_site_fract_z
 _atom_site_occupancy
  Li  Li0  2  0.47178107  0.33372514  0.60344096  1.0
  Li  Li1  2  0.73134910  0.15876303  0.35965687  1.0
  Zn  Zn2  2  0.97390815  0.32505429  0.10720620  1.0
  Sn  Sn3  2  0.22384329  0.17327910  0.85643661  1.0
  Se  Se4  2  0.09773710  0.34523405  0.60684113  1.0
  Se  Se5  2  0.34274171  0.16818136  0.35143268  1.0
  Se  Se6  2  0.61022732  0.32938776  0.10981199  1.0
  Se  Se7  2  0.84676225  0.18205891  0.85901355  1.0
