# generated using pymatgen
data_LiBS4(ClO3)4
_symmetry_space_group_name_H-M   P2_1/c
_cell_length_a   9.11066134
_cell_length_b   8.69602567
_cell_length_c   21.67939476
_cell_angle_alpha   90.00000000
_cell_angle_beta   91.16835800
_cell_angle_gamma   90.00000000
_symmetry_Int_Tables_number   14
_chemical_formula_structural   LiBS4(ClO3)4
_chemical_formula_sum   'Li4 B4 S16 Cl16 O48'
_cell_volume   1717.22645133
_cell_formula_units_Z   4
loop_
 _symmetry_equiv_pos_site_id
 _symmetry_equiv_pos_as_xyz
  1  'x, y, z'
  2  '-x, -y, -z'
  3  '-x, y+1/2, -z+1/2'
  4  'x, -y+1/2, z+1/2'
loop_
 _atom_site_type_symbol
 _atom_site_label
 _atom_site_symmetry_multiplicity
 _atom_site_fract_x
 _atom_site_fract_y
 _atom_site_fract_z
 _atom_site_occupancy
  Li  Li0  4  0.40909326  0.24880643  0.44009003  1.0
  B  B1  4  0.15498036  0.74500387  0.08804589  1.0
  S  S2  4  0.10098655  0.18121024  0.35330589  1.0
  S  S3  4  0.27861136  0.60550431  0.48830766  1.0
  S  S4  4  0.31320763  0.01770656  0.56123921  1.0
  S  S5  4  0.35515069  0.62870532  0.66961636  1.0
  Cl  Cl6  4  0.07362352  0.17337312  0.78003261  1.0
  Cl  Cl7  4  0.14400264  0.69897386  0.42242217  1.0
  Cl  Cl8  4  0.25286941  0.16688625  0.62786528  1.0
  Cl  Cl9  4  0.43761334  0.74965220  0.24239717  1.0
  O  O10  4  0.00506980  0.24020326  0.90337598  1.0
  O  O11  4  0.04445392  0.03320563  0.33532793  1.0
  O  O12  4  0.18115261  0.59596380  0.05658266  1.0
  O  O13  4  0.18785862  0.62023262  0.54796024  1.0
  O  O14  4  0.23553589  0.74718747  0.64759178  1.0
  O  O15  4  0.25169612  0.19711778  0.37382432  1.0
  O  O16  4  0.28892984  0.00873441  0.19305468  1.0
  O  O17  4  0.29001059  0.05627721  0.97537994  1.0
  O  O18  4  0.31190444  0.10215565  0.50414091  1.0
  O  O19  4  0.40931062  0.69950666  0.49089967  1.0
  O  O20  4  0.44586652  0.55590169  0.08358433  1.0
  O  O21  4  0.46984637  0.61519329  0.62462774  1.0
