# generated using pymatgen
data_Li4TeO5
_symmetry_space_group_name_H-M   P-1
_cell_length_a   5.30409506
_cell_length_b   5.21292618
_cell_length_c   7.90503038
_cell_angle_alpha   102.40324411
_cell_angle_beta   107.04951929
_cell_angle_gamma   101.88107251
_symmetry_Int_Tables_number   2
_chemical_formula_structural   Li4TeO5
_chemical_formula_sum   'Li8 Te2 O10'
_cell_volume   195.44647448
_cell_formula_units_Z   2
loop_
 _symmetry_equiv_pos_site_id
 _symmetry_equiv_pos_as_xyz
  1  'x, y, z'
  2  '-x, -y, -z'
loop_
 _atom_site_type_symbol
 _atom_site_label
 _atom_site_symmetry_multiplicity
 _atom_site_fract_x
 _atom_site_fract_y
 _atom_site_fract_z
 _atom_site_occupancy
  Li  Li0  2  0.19825440  0.57996353  0.68148310  1.0
  Li  Li1  2  0.37799095  0.70613662  0.39429729  1.0
  Li  Li2  2  0.38479119  0.22758535  0.88324086  1.0
  Li  Li3  1  0.00000000  0.00000000  0.50000000  1.0
  Li  Li4  1  0.00000000  0.50000000  0.00000000  1.0
  Te  Te5  2  0.21150006  0.11027267  0.21208777  1.0
  O  O6  2  0.00748808  0.77800139  0.25186252  1.0
  O  O7  2  0.16905839  0.86353235  0.95362701  1.0
  O  O8  2  0.17739097  0.34258662  0.42971009  1.0
  O  O9  2  0.39482685  0.42998920  0.15216588  1.0
  O  O10  2  0.43590347  0.95002624  0.66819489  1.0
