# generated using pymatgen
data_Li3AsS3
_symmetry_space_group_name_H-M   Pna2_1
_cell_length_a   8.10011822
_cell_length_b   6.67935915
_cell_length_c   9.96809015
_cell_angle_alpha   90.00000000
_cell_angle_beta   90.00000000
_cell_angle_gamma   90.00000000
_symmetry_Int_Tables_number   33
_chemical_formula_structural   Li3AsS3
_chemical_formula_sum   'Li12 As4 S12'
_cell_volume   539.30954940
_cell_formula_units_Z   4
loop_
 _symmetry_equiv_pos_site_id
 _symmetry_equiv_pos_as_xyz
  1  'x, y, z'
  2  '-x, -y, z+1/2'
  3  '-x+1/2, y+1/2, z+1/2'
  4  'x+1/2, -y+1/2, z'
loop_
 _atom_site_type_symbol
 _atom_site_label
 _atom_site_symmetry_multiplicity
 _atom_site_fract_x
 _atom_site_fract_y
 _atom_site_fract_z
 _atom_site_occupancy
  Li  Li0  4  0.07258939  0.94807905  0.72298609  1.0
  Li  Li1  4  0.08424572  0.65155301  0.19030094  1.0
  Li  Li2  4  0.24491091  0.11852276  0.38475030  1.0
  As  As3  4  0.24223348  0.10225737  0.00115171  1.0
  S  S4  4  0.04534483  0.85507228  0.98968944  1.0
  S  S5  4  0.15312099  0.29303153  0.17660786  1.0
  S  S6  4  0.18003100  0.28321893  0.81381367  1.0
