# generated using pymatgen
data_KLiZnO2
_symmetry_space_group_name_H-M   C2/m
_cell_length_a   10.92760335
_cell_length_b   3.37586146
_cell_length_c   8.31391239
_cell_angle_alpha   90.00000000
_cell_angle_beta   119.85219570
_cell_angle_gamma   90.00000000
_symmetry_Int_Tables_number   12
_chemical_formula_structural   KLiZnO2
_chemical_formula_sum   'K4 Li4 Zn4 O8'
_cell_volume   266.00543829
_cell_formula_units_Z   4
loop_
 _symmetry_equiv_pos_site_id
 _symmetry_equiv_pos_as_xyz
  1  'x, y, z'
  2  '-x, -y, -z'
  3  '-x, y, -z'
  4  'x, -y, z'
  5  'x+1/2, y+1/2, z'
  6  '-x+1/2, -y+1/2, -z'
  7  '-x+1/2, y+1/2, -z'
  8  'x+1/2, -y+1/2, z'
loop_
 _atom_site_type_symbol
 _atom_site_label
 _atom_site_symmetry_multiplicity
 _atom_site_fract_x
 _atom_site_fract_y
 _atom_site_fract_z
 _atom_site_occupancy
  K  K0  4  0.16373153  0.00000000  0.13106724  1.0
  Li  Li1  4  0.15850997  0.50000000  0.44649322  1.0
  Zn  Zn2  4  0.04439228  0.00000000  0.68225773  1.0
  O  O3  4  0.03670993  0.50000000  0.80460193  1.0
  O  O4  4  0.16267995  0.00000000  0.56243810  1.0
