# generated using pymatgen
data_LiYMo3O8
_symmetry_space_group_name_H-M   P3m1
_cell_length_a   5.81848714
_cell_length_b   5.81848714
_cell_length_c   5.21445882
_cell_angle_alpha   90.00000000
_cell_angle_beta   90.00000000
_cell_angle_gamma   120.00000000
_symmetry_Int_Tables_number   156
_chemical_formula_structural   LiYMo3O8
_chemical_formula_sum   'Li1 Y1 Mo3 O8'
_cell_volume   152.88329377
_cell_formula_units_Z   1
loop_
 _symmetry_equiv_pos_site_id
 _symmetry_equiv_pos_as_xyz
  1  'x, y, z'
  2  '-y, x-y, z'
  3  '-x+y, -x, z'
  4  '-y, -x, z'
  5  '-x+y, y, z'
  6  'x, x-y, z'
loop_
 _atom_site_type_symbol
 _atom_site_label
 _atom_site_symmetry_multiplicity
 _atom_site_fract_x
 _atom_site_fract_y
 _atom_site_fract_z
 _atom_site_occupancy
  Li  Li0  1  0.33333333  0.66666667  0.67581942  1.0
  Y  Y1  1  0.00000000  0.00000000  0.70745364  1.0
  Mo  Mo2  3  0.52029680  0.04059360  0.23374004  1.0
  O  O3  3  0.17739576  0.35479152  0.45013474  1.0
  O  O4  3  0.33900344  0.16950172  0.00445402  1.0
  O  O5  1  0.33333333  0.66666667  0.03732162  1.0
  O  O6  1  0.66666667  0.33333333  0.50694367  1.0
