# generated using pymatgen
data_Li2MgSiO4
_symmetry_space_group_name_H-M   P2_1/c
_cell_length_a   5.05812287
_cell_length_b   10.77585623
_cell_length_c   8.07547480
_cell_angle_alpha   90.00000000
_cell_angle_beta   128.30271002
_cell_angle_gamma   90.00000000
_symmetry_Int_Tables_number   14
_chemical_formula_structural   Li2MgSiO4
_chemical_formula_sum   'Li8 Mg4 Si4 O16'
_cell_volume   345.41319537
_cell_formula_units_Z   4
loop_
 _symmetry_equiv_pos_site_id
 _symmetry_equiv_pos_as_xyz
  1  'x, y, z'
  2  '-x, -y, -z'
  3  '-x, y+1/2, -z+1/2'
  4  'x, -y+1/2, z+1/2'
loop_
 _atom_site_type_symbol
 _atom_site_label
 _atom_site_symmetry_multiplicity
 _atom_site_fract_x
 _atom_site_fract_y
 _atom_site_fract_z
 _atom_site_occupancy
  Li  Li0  4  0.31083046  0.16380689  0.00380158  1.0
  Li  Li1  4  0.46665851  0.07531302  0.76376328  1.0
  Mg  Mg2  4  0.19084646  0.66660615  0.99919082  1.0
  Si  Si3  4  0.06318141  0.08524191  0.25158369  1.0
  O  O4  4  0.04613069  0.05931962  0.75163297  1.0
  O  O5  4  0.16860571  0.15774298  0.46648959  1.0
  O  O6  4  0.25514175  0.65917362  0.46063171  1.0
  O  O7  4  0.39270201  0.08858610  0.25382657  1.0
