# generated using pymatgen
data_Li4Zn(PO4)2
_symmetry_space_group_name_H-M   P2_1/c
_cell_length_a   8.19136944
_cell_length_b   10.38887324
_cell_length_c   8.18088659
_cell_angle_alpha   90.00000000
_cell_angle_beta   104.47370053
_cell_angle_gamma   90.00000000
_symmetry_Int_Tables_number   14
_chemical_formula_structural   Li4Zn(PO4)2
_chemical_formula_sum   'Li16 Zn4 P8 O32'
_cell_volume   674.09084725
_cell_formula_units_Z   4
loop_
 _symmetry_equiv_pos_site_id
 _symmetry_equiv_pos_as_xyz
  1  'x, y, z'
  2  '-x, -y, -z'
  3  '-x, y+1/2, -z+1/2'
  4  'x, -y+1/2, z+1/2'
loop_
 _atom_site_type_symbol
 _atom_site_label
 _atom_site_symmetry_multiplicity
 _atom_site_fract_x
 _atom_site_fract_y
 _atom_site_fract_z
 _atom_site_occupancy
  Li  Li0  4  0.15067240  0.65177236  0.15104437  1.0
  Li  Li1  4  0.34494140  0.16244134  0.84227462  1.0
  Li  Li2  4  0.39863477  0.66372378  0.90002216  1.0
  Li  Li3  4  0.47743046  0.57334618  0.22696607  1.0
  Zn  Zn4  4  0.09162058  0.15616509  0.09120908  1.0
  P  P5  4  0.23213748  0.09355515  0.46618301  1.0
  P  P6  4  0.28946891  0.59158393  0.52627202  1.0
  O  O7  4  0.07005019  0.10400176  0.31600319  1.0
  O  O8  4  0.13657544  0.66754898  0.56172175  1.0
  O  O9  4  0.19556744  0.17042470  0.61780658  1.0
  O  O10  4  0.24317229  0.05361718  0.98881776  1.0
  O  O11  4  0.27447742  0.54780129  0.02207459  1.0
  O  O12  4  0.33885394  0.65140499  0.37076179  1.0
  O  O13  4  0.38409563  0.15558360  0.41179525  1.0
  O  O14  4  0.43861205  0.59952407  0.68737452  1.0
