# generated using pymatgen
data_Li2In2GeS6
_symmetry_space_group_name_H-M   Cc
_cell_length_a   12.38406186
_cell_length_b   7.21953456
_cell_length_c   12.33106632
_cell_angle_alpha   90.00000000
_cell_angle_beta   109.98903155
_cell_angle_gamma   90.00000000
_symmetry_Int_Tables_number   9
_chemical_formula_structural   Li2In2GeS6
_chemical_formula_sum   'Li8 In8 Ge4 S24'
_cell_volume   1036.06979700
_cell_formula_units_Z   4
loop_
 _symmetry_equiv_pos_site_id
 _symmetry_equiv_pos_as_xyz
  1  'x, y, z'
  2  'x, -y, z+1/2'
  3  'x+1/2, y+1/2, z'
  4  'x+1/2, -y+1/2, z+1/2'
loop_
 _atom_site_type_symbol
 _atom_site_label
 _atom_site_symmetry_multiplicity
 _atom_site_fract_x
 _atom_site_fract_y
 _atom_site_fract_z
 _atom_site_occupancy
  Li  Li0  4  0.00011403  0.39764916  0.50383541  1.0
  Li  Li1  4  0.20675164  0.20776531  0.16086095  1.0
  In  In2  4  0.01905481  0.09490344  0.81230773  1.0
  In  In3  4  0.34653560  0.42632739  0.50719313  1.0
  Ge  Ge4  4  0.27233944  0.26781525  0.75099607  1.0
  S  S5  4  0.01588830  0.24886464  0.99300860  1.0
  S  S6  4  0.19929183  0.24426630  0.56024831  1.0
  S  S7  4  0.20597921  0.47492763  0.30413296  1.0
  S  S8  4  0.22030560  0.01552821  0.82429951  1.0
  S  S9  4  0.39471226  0.27764953  0.12111123  1.0
  S  S10  4  0.46282650  0.25634540  0.81244601  1.0
