# generated using pymatgen
data_LiYSiO4
_symmetry_space_group_name_H-M   P2_1/c
_cell_length_a   5.44739293
_cell_length_b   6.22078155
_cell_length_c   10.93565277
_cell_angle_alpha   90.00000000
_cell_angle_beta   113.58527868
_cell_angle_gamma   90.00000000
_symmetry_Int_Tables_number   14
_chemical_formula_structural   LiYSiO4
_chemical_formula_sum   'Li4 Y4 Si4 O16'
_cell_volume   339.62098364
_cell_formula_units_Z   4
loop_
 _symmetry_equiv_pos_site_id
 _symmetry_equiv_pos_as_xyz
  1  'x, y, z'
  2  '-x, -y, -z'
  3  '-x, y+1/2, -z+1/2'
  4  'x, -y+1/2, z+1/2'
loop_
 _atom_site_type_symbol
 _atom_site_label
 _atom_site_symmetry_multiplicity
 _atom_site_fract_x
 _atom_site_fract_y
 _atom_site_fract_z
 _atom_site_occupancy
  Li  Li0  4  0.07936133  0.63457850  0.43047833  1.0
  Y  Y1  4  0.44696301  0.11651156  0.65226407  1.0
  Si  Si2  4  0.09544385  0.15083162  0.35930705  1.0
  O  O3  4  0.18576230  0.16400892  0.97608604  1.0
  O  O4  4  0.22727836  0.57142362  0.94478035  1.0
  O  O5  4  0.23172112  0.64163897  0.22266452  1.0
  O  O6  4  0.24025357  0.16146240  0.25204731  1.0
