# generated using pymatgen
data_LiLa(CO3)2
_symmetry_space_group_name_H-M   C2/c
_cell_length_a   10.25872718
_cell_length_b   7.94799870
_cell_length_c   6.99418572
_cell_angle_alpha   90.00000000
_cell_angle_beta   125.06527714
_cell_angle_gamma   90.00000000
_symmetry_Int_Tables_number   15
_chemical_formula_structural   LiLa(CO3)2
_chemical_formula_sum   'Li4 La4 C8 O24'
_cell_volume   466.77336912
_cell_formula_units_Z   4
loop_
 _symmetry_equiv_pos_site_id
 _symmetry_equiv_pos_as_xyz
  1  'x, y, z'
  2  '-x, -y, -z'
  3  '-x, y, -z+1/2'
  4  'x, -y, z+1/2'
  5  'x+1/2, y+1/2, z'
  6  '-x+1/2, -y+1/2, -z'
  7  '-x+1/2, y+1/2, -z+1/2'
  8  'x+1/2, -y+1/2, z+1/2'
loop_
 _atom_site_type_symbol
 _atom_site_label
 _atom_site_symmetry_multiplicity
 _atom_site_fract_x
 _atom_site_fract_y
 _atom_site_fract_z
 _atom_site_occupancy
  Li  Li0  4  0.00000000  0.24061683  0.75000000  1.0
  La  La1  4  0.00000000  0.18884279  0.25000000  1.0
  C  C2  8  0.23170243  0.43671313  0.12696885  1.0
  O  O3  8  0.12093772  0.09144127  0.69722093  1.0
  O  O4  8  0.12201016  0.32642090  0.05866307  1.0
  O  O5  8  0.20345474  0.40605628  0.52142469  1.0
