# generated using pymatgen
data_Li6Be3(BO3)4
_symmetry_space_group_name_H-M   P-1
_cell_length_a   4.68772836
_cell_length_b   9.11011021
_cell_length_c   11.42814481
_cell_angle_alpha   69.73166079
_cell_angle_beta   77.76167657
_cell_angle_gamma   76.51089432
_symmetry_Int_Tables_number   2
_chemical_formula_structural   Li6Be3(BO3)4
_chemical_formula_sum   'Li12 Be6 B8 O24'
_cell_volume   440.57111955
_cell_formula_units_Z   2
loop_
 _symmetry_equiv_pos_site_id
 _symmetry_equiv_pos_as_xyz
  1  'x, y, z'
  2  '-x, -y, -z'
loop_
 _atom_site_type_symbol
 _atom_site_label
 _atom_site_symmetry_multiplicity
 _atom_site_fract_x
 _atom_site_fract_y
 _atom_site_fract_z
 _atom_site_occupancy
  Li  Li0  2  0.00838642  0.58344938  0.72005064  1.0
  Li  Li1  2  0.04002323  0.88169255  0.66643234  1.0
  Li  Li2  2  0.19425567  0.40010704  0.56638939  1.0
  Li  Li3  2  0.25524934  0.88060362  0.95651223  1.0
  Li  Li4  2  0.31438802  0.62358524  0.07881456  1.0
  Li  Li5  2  0.44275977  0.04749436  0.68781580  1.0
  Be  Be6  2  0.21892535  0.76306711  0.43956124  1.0
  Be  Be7  2  0.29004538  0.22826546  0.85351185  1.0
  Be  Be8  2  0.43265188  0.68953397  0.79696096  1.0
  B  B9  2  0.12343668  0.88484981  0.20150907  1.0
  B  B10  2  0.14942984  0.29062534  0.07684527  1.0
  B  B11  2  0.34673686  0.20245504  0.43608794  1.0
  B  B12  2  0.43872908  0.55851865  0.30820557  1.0
  O  O13  2  0.04083810  0.22691660  0.44239966  1.0
  O  O14  2  0.07348735  0.69308002  0.82545642  1.0
  O  O15  2  0.07529528  0.26806388  0.97573475  1.0
  O  O16  2  0.16060973  0.91543163  0.30770626  1.0
  O  O17  2  0.16190012  0.08712892  0.82878445  1.0
  O  O18  2  0.23769760  0.59408917  0.40716916  1.0
  O  O19  2  0.28933524  0.39104977  0.72459918  1.0
  O  O20  2  0.36006741  0.82961215  0.12358736  1.0
  O  O21  2  0.37666560  0.46945265  0.24211604  1.0
  O  O22  2  0.43948799  0.29851766  0.08355222  1.0
  O  O23  2  0.46476624  0.22281604  0.52865519  1.0
  O  O24  2  0.47080561  0.84422973  0.66597378  1.0
