# generated using pymatgen
data_Li2Mo4O13
_symmetry_space_group_name_H-M   P-1
_cell_length_a   8.30446238
_cell_length_b   8.69416793
_cell_length_c   11.93686560
_cell_angle_alpha   110.40979348
_cell_angle_beta   94.26686710
_cell_angle_gamma   97.01106622
_symmetry_Int_Tables_number   2
_chemical_formula_structural   Li2Mo4O13
_chemical_formula_sum   'Li6 Mo12 O39'
_cell_volume   795.33858717
_cell_formula_units_Z   3
loop_
 _symmetry_equiv_pos_site_id
 _symmetry_equiv_pos_as_xyz
  1  'x, y, z'
  2  '-x, -y, -z'
loop_
 _atom_site_type_symbol
 _atom_site_label
 _atom_site_symmetry_multiplicity
 _atom_site_fract_x
 _atom_site_fract_y
 _atom_site_fract_z
 _atom_site_occupancy
  Li  Li0  2  0.11122896  0.98123459  0.36503392  1.0
  Li  Li1  2  0.29234866  0.52551253  0.01795992  1.0
  Li  Li2  2  0.31719917  0.96255721  0.63038294  1.0
  Mo  Mo3  2  0.02460123  0.34345510  0.36558358  1.0
  Mo  Mo4  2  0.02864852  0.83893325  0.03772669  1.0
  Mo  Mo5  2  0.22238169  0.32172116  0.63557708  1.0
  Mo  Mo6  2  0.36876664  0.14317031  0.96452101  1.0
  Mo  Mo7  2  0.38068502  0.69681729  0.36070610  1.0
  Mo  Mo8  2  0.41584209  0.32561838  0.36356140  1.0
  O  O9  2  0.01508188  0.29336264  0.21383612  1.0
  O  O10  2  0.06335663  0.92120920  0.19355836  1.0
  O  O11  2  0.07667024  0.14663491  0.60065474  1.0
  O  O12  2  0.08685982  0.46164394  0.58184188  1.0
  O  O13  2  0.11805601  0.80386590  0.61892741  1.0
  O  O14  2  0.13576051  0.67006276  0.00217679  1.0
  O  O15  2  0.15268353  0.99435243  0.98992472  1.0
  O  O16  2  0.19156516  0.28084931  0.99553019  1.0
  O  O17  2  0.21122832  0.23583906  0.40782022  1.0
  O  O18  2  0.23786345  0.41825384  0.78697042  1.0
  O  O19  2  0.26041450  0.51099339  0.38978905  1.0
  O  O20  2  0.27300897  0.85772854  0.40940333  1.0
  O  O21  2  0.34644391  0.61974441  0.20722213  1.0
  O  O22  2  0.34787422  0.06272766  0.81008032  1.0
  O  O23  2  0.39304412  0.23392660  0.21060471  1.0
  O  O24  2  0.39848636  0.18843644  0.61682762  1.0
  O  O25  2  0.43862834  0.46809982  0.60272649  1.0
  O  O26  2  0.45855927  0.78278809  0.58083272  1.0
  O  O27  2  0.49021746  0.67480454  0.99654866  1.0
  O  O28  1  0.50000000  0.00000000  0.00000000  1.0
