# generated using pymatgen
data_Li2In2SiSe6
_symmetry_space_group_name_H-M   Cc
_cell_length_a   12.87488474
_cell_length_b   7.49331717
_cell_length_c   12.81518242
_cell_angle_alpha   90.00000000
_cell_angle_beta   109.77556655
_cell_angle_gamma   90.00000000
_symmetry_Int_Tables_number   9
_chemical_formula_structural   Li2In2SiSe6
_chemical_formula_sum   'Li8 In8 Si4 Se24'
_cell_volume   1163.43863473
_cell_formula_units_Z   4
loop_
 _symmetry_equiv_pos_site_id
 _symmetry_equiv_pos_as_xyz
  1  'x, y, z'
  2  'x, -y, z+1/2'
  3  'x+1/2, y+1/2, z'
  4  'x+1/2, -y+1/2, z+1/2'
loop_
 _atom_site_type_symbol
 _atom_site_label
 _atom_site_symmetry_multiplicity
 _atom_site_fract_x
 _atom_site_fract_y
 _atom_site_fract_z
 _atom_site_occupancy
  Li  Li0  4  0.29095276  0.69132508  0.34009768  1.0
  Li  Li1  4  0.49973963  0.10264178  0.49892809  1.0
  In  In2  4  0.15431654  0.06808783  0.49187718  1.0
  In  In3  4  0.48095715  0.40461844  0.18929795  1.0
  Si  Si4  4  0.22620341  0.22931301  0.24899320  1.0
  Se  Se5  4  0.03819910  0.24822286  0.19392840  1.0
  Se  Se6  4  0.10506697  0.76621338  0.37969930  1.0
  Se  Se7  4  0.27350400  0.47665953  0.17012052  1.0
  Se  Se8  4  0.29373524  0.02463020  0.69865349  1.0
  Se  Se9  4  0.30034063  0.26032455  0.43685761  1.0
  Se  Se10  4  0.48236069  0.25285515  0.00424605  1.0
