# generated using pymatgen
data_Li4Ge5O12
_symmetry_space_group_name_H-M   P-1
_cell_length_a   5.19482559
_cell_length_b   9.30958551
_cell_length_c   9.74802402
_cell_angle_alpha   73.04326169
_cell_angle_beta   77.59535143
_cell_angle_gamma   78.91493373
_symmetry_Int_Tables_number   2
_chemical_formula_structural   Li4Ge5O12
_chemical_formula_sum   'Li8 Ge10 O24'
_cell_volume   436.14864361
_cell_formula_units_Z   2
loop_
 _symmetry_equiv_pos_site_id
 _symmetry_equiv_pos_as_xyz
  1  'x, y, z'
  2  '-x, -y, -z'
loop_
 _atom_site_type_symbol
 _atom_site_label
 _atom_site_symmetry_multiplicity
 _atom_site_fract_x
 _atom_site_fract_y
 _atom_site_fract_z
 _atom_site_occupancy
  Li  Li0  2  0.13481681  0.40552755  0.40775919  1.0
  Li  Li1  2  0.27125105  0.90934527  0.01977295  1.0
  Li  Li2  2  0.31144829  0.76649902  0.55442593  1.0
  Li  Li3  2  0.34437786  0.57759567  0.11167013  1.0
  Ge  Ge4  2  0.11738136  0.59420185  0.85165928  1.0
  Ge  Ge5  2  0.18642261  0.25655084  0.93465579  1.0
  Ge  Ge6  2  0.19493766  0.09936422  0.68310813  1.0
  Ge  Ge7  2  0.25793403  0.09677955  0.26690406  1.0
  Ge  Ge8  2  0.40761035  0.42225049  0.64466167  1.0
  O  O9  2  0.04654603  0.25924898  0.30294750  1.0
  O  O10  2  0.05092292  0.43273420  0.77532151  1.0
  O  O11  2  0.09079577  0.93532436  0.37078698  1.0
  O  O12  2  0.10292015  0.10166228  0.86748469  1.0
  O  O13  2  0.14998695  0.73124809  0.95082798  1.0
  O  O14  2  0.23411433  0.42322911  0.01312334  1.0
  O  O15  2  0.26543563  0.56684166  0.48467244  1.0
  O  O16  2  0.32270646  0.26284856  0.56857487  1.0
  O  O17  2  0.34627831  0.10067244  0.08090929  1.0
  O  O18  2  0.44093718  0.93758943  0.66100546  1.0
  O  O19  2  0.44540747  0.57986688  0.72904829  1.0
  O  O20  2  0.48776755  0.72606641  0.18906659  1.0
