# generated using pymatgen
data_Li2Si3O7
_symmetry_space_group_name_H-M   Pbcm
_cell_length_a   6.04461775
_cell_length_b   4.93451634
_cell_length_c   19.91043819
_cell_angle_alpha   90.00000000
_cell_angle_beta   90.00000000
_cell_angle_gamma   90.00000000
_symmetry_Int_Tables_number   57
_chemical_formula_structural   Li2Si3O7
_chemical_formula_sum   'Li8 Si12 O28'
_cell_volume   593.87391748
_cell_formula_units_Z   4
loop_
 _symmetry_equiv_pos_site_id
 _symmetry_equiv_pos_as_xyz
  1  'x, y, z'
  2  '-x, -y, -z'
  3  '-x, -y, z+1/2'
  4  'x, y, -z+1/2'
  5  'x, -y+1/2, -z'
  6  '-x, y+1/2, z'
  7  '-x, y+1/2, -z+1/2'
  8  'x, -y+1/2, z+1/2'
loop_
 _atom_site_type_symbol
 _atom_site_label
 _atom_site_symmetry_multiplicity
 _atom_site_fract_x
 _atom_site_fract_y
 _atom_site_fract_z
 _atom_site_occupancy
  Li  Li0  8  0.35505558  0.55985619  0.04391384  1.0
  Si  Si1  8  0.14646821  0.05293278  0.10429897  1.0
  Si  Si2  4  0.34935575  0.07978046  0.25000000  1.0
  O  O3  8  0.08735026  0.12099947  0.59038160  1.0
  O  O4  8  0.20119698  0.01411100  0.18407387  1.0
  O  O5  8  0.33920639  0.54596588  0.55527654  1.0
  O  O6  4  0.42520008  0.10307667  0.75000000  1.0
