# generated using pymatgen
data_LiZnAsO4
_symmetry_space_group_name_H-M   R3
_cell_length_a   14.33094955
_cell_length_b   14.33094955
_cell_length_c   9.54458600
_cell_angle_alpha   90.00000000
_cell_angle_beta   90.00000000
_cell_angle_gamma   120.00000000
_symmetry_Int_Tables_number   146
_chemical_formula_structural   LiZnAsO4
_chemical_formula_sum   'Li18 Zn18 As18 O72'
_cell_volume   1697.60896930
_cell_formula_units_Z   18
loop_
 _symmetry_equiv_pos_site_id
 _symmetry_equiv_pos_as_xyz
  1  'x, y, z'
  2  '-y, x-y, z'
  3  '-x+y, -x, z'
  4  'x+2/3, y+1/3, z+1/3'
  5  '-y+2/3, x-y+1/3, z+1/3'
  6  '-x+y+2/3, -x+1/3, z+1/3'
  7  'x+1/3, y+2/3, z+2/3'
  8  '-y+1/3, x-y+2/3, z+2/3'
  9  '-x+y+1/3, -x+2/3, z+2/3'
loop_
 _atom_site_type_symbol
 _atom_site_label
 _atom_site_symmetry_multiplicity
 _atom_site_fract_x
 _atom_site_fract_y
 _atom_site_fract_z
 _atom_site_occupancy
  Li  Li0  9  0.01611614  0.20875577  0.14008051  1.0
  Li  Li1  9  0.14153544  0.68811916  0.30525507  1.0
  Zn  Zn2  9  0.02147557  0.21316777  0.47132672  1.0
  Zn  Zn3  9  0.14075017  0.68323454  0.63755643  1.0
  As  As4  9  0.01410419  0.21155527  0.80615677  1.0
  As  As5  9  0.13724591  0.68278906  0.97227859  1.0
  O  O6  9  0.00382690  0.32718306  0.80435125  1.0
  O  O7  9  0.00933637  0.66788182  0.97466087  1.0
  O  O8  9  0.07812932  0.20612480  0.95755642  1.0
  O  O9  9  0.08193122  0.20702165  0.65697142  1.0
  O  O10  9  0.10041765  0.21341702  0.30348592  1.0
  O  O11  9  0.20624084  0.74812969  0.82046016  1.0
  O  O12  9  0.20821230  0.75014420  0.12189913  1.0
  O  O13  9  0.21705163  0.76782214  0.47158704  1.0
