# generated using pymatgen
data_Li2TeWO6
_symmetry_space_group_name_H-M   P2_1/c
_cell_length_a   5.40708228
_cell_length_b   13.31431651
_cell_length_c   8.63044470
_cell_angle_alpha   90.00000000
_cell_angle_beta   125.89255643
_cell_angle_gamma   90.00000000
_symmetry_Int_Tables_number   14
_chemical_formula_structural   Li2TeWO6
_chemical_formula_sum   'Li8 Te4 W4 O24'
_cell_volume   503.34204580
_cell_formula_units_Z   4
loop_
 _symmetry_equiv_pos_site_id
 _symmetry_equiv_pos_as_xyz
  1  'x, y, z'
  2  '-x, -y, -z'
  3  '-x, y+1/2, -z+1/2'
  4  'x, -y+1/2, z+1/2'
loop_
 _atom_site_type_symbol
 _atom_site_label
 _atom_site_symmetry_multiplicity
 _atom_site_fract_x
 _atom_site_fract_y
 _atom_site_fract_z
 _atom_site_occupancy
  Li  Li0  4  0.22324740  0.14749713  0.96196658  1.0
  Li  Li1  4  0.44970596  0.06175944  0.75474053  1.0
  Te  Te2  4  0.31997573  0.70758999  0.07448650  1.0
  W  W3  4  0.02176659  0.09563376  0.24305333  1.0
  O  O4  4  0.15567264  0.10071821  0.48806120  1.0
  O  O5  4  0.17267929  0.64944802  0.54046004  1.0
  O  O6  4  0.18714623  0.01942838  0.83810594  1.0
  O  O7  4  0.25358396  0.24917581  0.29684717  1.0
  O  O8  4  0.32571138  0.69369417  0.31023510  1.0
  O  O9  4  0.37031407  0.05971548  0.26710699  1.0
