# generated using pymatgen
data_Li2AlBO4
_symmetry_space_group_name_H-M   P2_1/c
_cell_length_a   6.42290228
_cell_length_b   5.07676622
_cell_length_c   10.41704665
_cell_angle_alpha   90.00000000
_cell_angle_beta   96.81054509
_cell_angle_gamma   90.00000000
_symmetry_Int_Tables_number   14
_chemical_formula_structural   Li2AlBO4
_chemical_formula_sum   'Li8 Al4 B4 O16'
_cell_volume   337.27776658
_cell_formula_units_Z   4
loop_
 _symmetry_equiv_pos_site_id
 _symmetry_equiv_pos_as_xyz
  1  'x, y, z'
  2  '-x, -y, -z'
  3  '-x, y+1/2, -z+1/2'
  4  'x, -y+1/2, z+1/2'
loop_
 _atom_site_type_symbol
 _atom_site_label
 _atom_site_symmetry_multiplicity
 _atom_site_fract_x
 _atom_site_fract_y
 _atom_site_fract_z
 _atom_site_occupancy
  Li  Li0  4  0.10934691  0.12881819  0.78592350  1.0
  Li  Li1  4  0.22374032  0.16982986  0.07164711  1.0
  Al  Al2  4  0.49936202  0.65008516  0.15740986  1.0
  B  B3  4  0.20214515  0.67515873  0.94022028  1.0
  O  O4  4  0.04879871  0.70283812  0.36064293  1.0
  O  O5  4  0.26687669  0.08775314  0.41923045  1.0
  O  O6  4  0.30325354  0.69177797  0.54836012  1.0
  O  O7  4  0.39724657  0.14015418  0.71649438  1.0
