# generated using pymatgen
data_SrLi2(SiN2)2
_symmetry_space_group_name_H-M   Pa-3
_cell_length_a   10.77862464
_cell_length_b   10.77862464
_cell_length_c   10.77862464
_cell_angle_alpha   90.00000000
_cell_angle_beta   90.00000000
_cell_angle_gamma   90.00000000
_symmetry_Int_Tables_number   205
_chemical_formula_structural   SrLi2(SiN2)2
_chemical_formula_sum   'Sr12 Li24 Si24 N48'
_cell_volume   1252.24712870
_cell_formula_units_Z   12
loop_
 _symmetry_equiv_pos_site_id
 _symmetry_equiv_pos_as_xyz
  1  'x, y, z'
  2  '-x, -y, -z'
  3  '-x+1/2, -y, z+1/2'
  4  'x+1/2, y, -z+1/2'
  5  'x+1/2, -y+1/2, -z'
  6  '-x+1/2, y+1/2, z'
  7  '-x, y+1/2, -z+1/2'
  8  'x, -y+1/2, z+1/2'
  9  'z, x, y'
  10  '-z, -x, -y'
  11  'z+1/2, -x+1/2, -y'
  12  '-z+1/2, x+1/2, y'
  13  '-z, x+1/2, -y+1/2'
  14  'z, -x+1/2, y+1/2'
  15  '-z+1/2, -x, y+1/2'
  16  'z+1/2, x, -y+1/2'
  17  'y, z, x'
  18  '-y, -z, -x'
  19  '-y, z+1/2, -x+1/2'
  20  'y, -z+1/2, x+1/2'
  21  '-y+1/2, -z, x+1/2'
  22  'y+1/2, z, -x+1/2'
  23  'y+1/2, -z+1/2, -x'
  24  '-y+1/2, z+1/2, x'
loop_
 _atom_site_type_symbol
 _atom_site_label
 _atom_site_symmetry_multiplicity
 _atom_site_fract_x
 _atom_site_fract_y
 _atom_site_fract_z
 _atom_site_occupancy
  Sr  Sr0  8  0.21695669  0.21695669  0.21695669  1.0
  Sr  Sr1  4  0.00000000  0.00000000  0.50000000  1.0
  Li  Li2  24  0.02768648  0.60710852  0.27050031  1.0
  Si  Si3  24  0.02100446  0.63023075  0.74354011  1.0
  N  N4  24  0.00833428  0.72854414  0.87540668  1.0
  N  N5  24  0.05925404  0.73222466  0.62465206  1.0
