# generated using pymatgen
data_Li9Ga3P8O29
_symmetry_space_group_name_H-M   P-3c1
_cell_length_a   9.78817562
_cell_length_b   9.78817562
_cell_length_c   13.72241808
_cell_angle_alpha   90.00000000
_cell_angle_beta   90.00000000
_cell_angle_gamma   120.00000000
_symmetry_Int_Tables_number   165
_chemical_formula_structural   Li9Ga3P8O29
_chemical_formula_sum   'Li18 Ga6 P16 O58'
_cell_volume   1138.58323447
_cell_formula_units_Z   2
loop_
 _symmetry_equiv_pos_site_id
 _symmetry_equiv_pos_as_xyz
  1  'x, y, z'
  2  '-x, -y, -z'
  3  '-y, x-y, z'
  4  'y, -x+y, -z'
  5  '-x+y, -x, z'
  6  'x-y, x, -z'
  7  'y, x, -z+1/2'
  8  '-y, -x, z+1/2'
  9  'x-y, -y, -z+1/2'
  10  '-x+y, y, z+1/2'
  11  '-x, -x+y, -z+1/2'
  12  'x, x-y, z+1/2'
loop_
 _atom_site_type_symbol
 _atom_site_label
 _atom_site_symmetry_multiplicity
 _atom_site_fract_x
 _atom_site_fract_y
 _atom_site_fract_z
 _atom_site_occupancy
  Li  Li0  12  0.10449330  0.34466406  0.06421203  1.0
  Li  Li1  4  0.33333333  0.66666667  0.38159985  1.0
  Li  Li2  2  0.00000000  0.00000000  0.00000000  1.0
  Ga  Ga3  6  0.00000000  0.43391635  0.25000000  1.0
  P  P4  12  0.09009347  0.31763835  0.84424555  1.0
  P  P5  4  0.33333333  0.66666667  0.12504694  1.0
  O  O6  12  0.00456088  0.23083547  0.56605131  1.0
  O  O7  12  0.07635926  0.32972066  0.34629217  1.0
  O  O8  12  0.10848956  0.48242997  0.83349179  1.0
  O  O9  12  0.18595921  0.50969512  0.16182571  1.0
  O  O10  6  0.00000000  0.21230983  0.75000000  1.0
  O  O11  4  0.33333333  0.66666667  0.01435140  1.0
