# generated using pymatgen
data_Li2Cd(PO3)4
_symmetry_space_group_name_H-M   Pnma
_cell_length_a   9.63798524
_cell_length_b   9.46621811
_cell_length_c   10.43245448
_cell_angle_alpha   90.00000000
_cell_angle_beta   90.00000000
_cell_angle_gamma   90.00000000
_symmetry_Int_Tables_number   62
_chemical_formula_structural   Li2Cd(PO3)4
_chemical_formula_sum   'Li8 Cd4 P16 O48'
_cell_volume   951.80780479
_cell_formula_units_Z   4
loop_
 _symmetry_equiv_pos_site_id
 _symmetry_equiv_pos_as_xyz
  1  'x, y, z'
  2  '-x, -y, -z'
  3  '-x+1/2, -y, z+1/2'
  4  'x+1/2, y, -z+1/2'
  5  'x+1/2, -y+1/2, -z+1/2'
  6  '-x+1/2, y+1/2, z+1/2'
  7  '-x, y+1/2, -z'
  8  'x, -y+1/2, z'
loop_
 _atom_site_type_symbol
 _atom_site_label
 _atom_site_symmetry_multiplicity
 _atom_site_fract_x
 _atom_site_fract_y
 _atom_site_fract_z
 _atom_site_occupancy
  Li  Li0  8  0.00119712  0.10658888  0.82590633  1.0
  Cd  Cd1  4  0.00945251  0.75000000  0.80091755  1.0
  P  P2  8  0.21137680  0.01445616  0.39540308  1.0
  P  P3  4  0.19859262  0.25000000  0.59934948  1.0
  P  P4  4  0.23596341  0.75000000  0.52212948  1.0
  O  O5  8  0.10720110  0.05603579  0.29368123  1.0
  O  O6  8  0.13538395  0.53617049  0.86991821  1.0
  O  O7  8  0.16118672  0.60368771  0.45858282  1.0
  O  O8  8  0.16559578  0.09969205  0.52882822  1.0
  O  O9  4  0.09748128  0.25000000  0.70884007  1.0
  O  O10  4  0.10757998  0.25000000  0.01418136  1.0
  O  O11  4  0.14909056  0.75000000  0.12499874  1.0
  O  O12  4  0.17275642  0.75000000  0.65045160  1.0
