# generated using pymatgen
data_Rb2Li3B(P2O7)2
_symmetry_space_group_name_H-M   Cmce
_cell_length_a   24.21047290
_cell_length_b   14.47822801
_cell_length_c   7.21752042
_cell_angle_alpha   90.00000000
_cell_angle_beta   90.00000000
_cell_angle_gamma   90.00000000
_symmetry_Int_Tables_number   64
_chemical_formula_structural   Rb2Li3B(P2O7)2
_chemical_formula_sum   'Rb16 Li24 B8 P32 O112'
_cell_volume   2529.91951698
_cell_formula_units_Z   8
loop_
 _symmetry_equiv_pos_site_id
 _symmetry_equiv_pos_as_xyz
  1  'x, y, z'
  2  '-x, -y, -z'
  3  '-x, -y+1/2, z+1/2'
  4  'x, y+1/2, -z+1/2'
  5  'x, -y, -z'
  6  '-x, y, z'
  7  '-x, y+1/2, -z+1/2'
  8  'x, -y+1/2, z+1/2'
  9  'x+1/2, y+1/2, z'
  10  '-x+1/2, -y+1/2, -z'
  11  '-x+1/2, -y, z+1/2'
  12  'x+1/2, y, -z+1/2'
  13  'x+1/2, -y+1/2, -z'
  14  '-x+1/2, y+1/2, z'
  15  '-x+1/2, y, -z+1/2'
  16  'x+1/2, -y, z+1/2'
loop_
 _atom_site_type_symbol
 _atom_site_label
 _atom_site_symmetry_multiplicity
 _atom_site_fract_x
 _atom_site_fract_y
 _atom_site_fract_z
 _atom_site_occupancy
  Rb  Rb0  8  0.00000000  0.11409872  0.70039546  1.0
  Rb  Rb1  8  0.25000000  0.15295180  0.25000000  1.0
  Li  Li2  16  0.13332345  0.23553843  0.47886508  1.0
  Li  Li3  8  0.11832737  0.00000000  0.50000000  1.0
  B  B4  8  0.11988675  0.00000000  0.00000000  1.0
  P  P5  16  0.06299620  0.13337275  0.19975300  1.0
  P  P6  16  0.18856664  0.09807766  0.76158762  1.0
  O  O7  16  0.06117197  0.07108660  0.36673674  1.0
  O  O8  16  0.08388981  0.08228208  0.01832953  1.0
  O  O9  16  0.09392135  0.22457739  0.21994621  1.0
  O  O10  16  0.15456467  0.01098378  0.83310032  1.0
  O  O11  16  0.16896133  0.11727330  0.56475608  1.0
  O  O12  16  0.19099537  0.17785653  0.89677923  1.0
  O  O13  8  0.00000000  0.16302381  0.13637433  1.0
  O  O14  8  0.25000000  0.05030444  0.75000000  1.0
