# generated using pymatgen
data_Li3AlMo2(AsO7)2
_symmetry_space_group_name_H-M   P-1
_cell_length_a   5.27164407
_cell_length_b   5.49524234
_cell_length_c   9.60036187
_cell_angle_alpha   96.96917687
_cell_angle_beta   101.88991230
_cell_angle_gamma   106.04307524
_symmetry_Int_Tables_number   2
_chemical_formula_structural   Li3AlMo2(AsO7)2
_chemical_formula_sum   'Li3 Al1 Mo2 As2 O14'
_cell_volume   256.80439425
_cell_formula_units_Z   1
loop_
 _symmetry_equiv_pos_site_id
 _symmetry_equiv_pos_as_xyz
  1  'x, y, z'
  2  '-x, -y, -z'
loop_
 _atom_site_type_symbol
 _atom_site_label
 _atom_site_symmetry_multiplicity
 _atom_site_fract_x
 _atom_site_fract_y
 _atom_site_fract_z
 _atom_site_occupancy
  Li  Li0  2  0.17962770  0.37561903  0.81514330  1.0
  Li  Li1  1  0.00000000  0.50000000  0.50000000  1.0
  Al  Al2  1  0.50000000  0.00000000  0.00000000  1.0
  Mo  Mo3  2  0.49799571  0.83979696  0.35315132  1.0
  As  As4  2  0.15420525  0.22853989  0.17510728  1.0
  O  O5  2  0.13127157  0.80307868  0.96107274  1.0
  O  O6  2  0.13341395  0.97946276  0.26962939  1.0
  O  O7  2  0.16015606  0.51116813  0.29005236  1.0
  O  O8  2  0.28096795  0.33256019  0.59512140  1.0
  O  O9  2  0.32490551  0.83795239  0.53601062  1.0
  O  O10  2  0.43826435  0.29565349  0.10385677  1.0
  O  O11  2  0.44348199  0.13067458  0.82248157  1.0
