# generated using pymatgen
data_LiNb3InCl9
_symmetry_space_group_name_H-M   P-1
_cell_length_a   9.42538281
_cell_length_b   9.48383149
_cell_length_c   9.54184304
_cell_angle_alpha   119.02832280
_cell_angle_beta   104.50605538
_cell_angle_gamma   97.87468056
_symmetry_Int_Tables_number   2
_chemical_formula_structural   LiNb3InCl9
_chemical_formula_sum   'Li2 Nb6 In2 Cl18'
_cell_volume   687.51040171
_cell_formula_units_Z   2
loop_
 _symmetry_equiv_pos_site_id
 _symmetry_equiv_pos_as_xyz
  1  'x, y, z'
  2  '-x, -y, -z'
loop_
 _atom_site_type_symbol
 _atom_site_label
 _atom_site_symmetry_multiplicity
 _atom_site_fract_x
 _atom_site_fract_y
 _atom_site_fract_z
 _atom_site_occupancy
  Li  Li0  2  0.38536004  0.95309712  0.80564644  1.0
  Nb  Nb1  2  0.12964776  0.34851601  0.89892074  1.0
  Nb  Nb2  2  0.14105686  0.57733883  0.24967709  1.0
  Nb  Nb3  2  0.14221731  0.70141603  0.02163686  1.0
  In  In4  2  0.35238967  0.26457896  0.50218164  1.0
  Cl  Cl5  2  0.00073227  0.64402416  0.72730934  1.0
  Cl  Cl6  2  0.01219965  0.76309122  0.40615438  1.0
  Cl  Cl7  2  0.01613177  0.91326431  0.14039263  1.0
  Cl  Cl8  2  0.29582975  0.15855764  0.76108904  1.0
  Cl  Cl9  2  0.31823730  0.40875068  0.16932085  1.0
  Cl  Cl10  2  0.31927816  0.55673145  0.90139878  1.0
  Cl  Cl11  2  0.33228336  0.95935144  0.05191471  1.0
  Cl  Cl12  2  0.33288926  0.67172457  0.55036401  1.0
  Cl  Cl13  2  0.33292047  0.82360182  0.30493310  1.0
