# generated using pymatgen
data_Li4TiO4
_symmetry_space_group_name_H-M   Cmcm
_cell_length_a   7.96234019
_cell_length_b   7.44745921
_cell_length_c   6.16889259
_cell_angle_alpha   90.00000000
_cell_angle_beta   90.00000000
_cell_angle_gamma   90.00000000
_symmetry_Int_Tables_number   63
_chemical_formula_structural   Li4TiO4
_chemical_formula_sum   'Li16 Ti4 O16'
_cell_volume   365.81041876
_cell_formula_units_Z   4
loop_
 _symmetry_equiv_pos_site_id
 _symmetry_equiv_pos_as_xyz
  1  'x, y, z'
  2  '-x, -y, -z'
  3  '-x, -y, z+1/2'
  4  'x, y, -z+1/2'
  5  'x, -y, -z'
  6  '-x, y, z'
  7  '-x, y, -z+1/2'
  8  'x, -y, z+1/2'
  9  'x+1/2, y+1/2, z'
  10  '-x+1/2, -y+1/2, -z'
  11  '-x+1/2, -y+1/2, z+1/2'
  12  'x+1/2, y+1/2, -z+1/2'
  13  'x+1/2, -y+1/2, -z'
  14  '-x+1/2, y+1/2, z'
  15  '-x+1/2, y+1/2, -z+1/2'
  16  'x+1/2, -y+1/2, z+1/2'
loop_
 _atom_site_type_symbol
 _atom_site_label
 _atom_site_symmetry_multiplicity
 _atom_site_fract_x
 _atom_site_fract_y
 _atom_site_fract_z
 _atom_site_occupancy
  Li  Li0  8  0.14541906  0.27007118  0.25000000  1.0
  Li  Li1  8  0.15970662  0.00000000  0.00000000  1.0
  Ti  Ti2  4  0.00000000  0.34020775  0.75000000  1.0
  O  O3  8  0.00000000  0.20282119  0.50221177  1.0
  O  O4  8  0.19717684  0.46785584  0.75000000  1.0
