# generated using pymatgen
data_LiTiPO5
_symmetry_space_group_name_H-M   P2_1/c
_cell_length_a   7.32026325
_cell_length_b   7.83441463
_cell_length_c   7.33720648
_cell_angle_alpha   90.00000000
_cell_angle_beta   118.66420536
_cell_angle_gamma   90.00000000
_symmetry_Int_Tables_number   14
_chemical_formula_structural   LiTiPO5
_chemical_formula_sum   'Li4 Ti4 P4 O20'
_cell_volume   369.21929940
_cell_formula_units_Z   4
loop_
 _symmetry_equiv_pos_site_id
 _symmetry_equiv_pos_as_xyz
  1  'x, y, z'
  2  '-x, -y, -z'
  3  '-x, y+1/2, -z+1/2'
  4  'x, -y+1/2, z+1/2'
loop_
 _atom_site_type_symbol
 _atom_site_label
 _atom_site_symmetry_multiplicity
 _atom_site_fract_x
 _atom_site_fract_y
 _atom_site_fract_z
 _atom_site_occupancy
  Li  Li0  4  0.25158159  0.06936128  0.19224807  1.0
  Ti  Ti1  4  0.25106903  0.73259294  0.97870142  1.0
  P  P2  4  0.25145414  0.10314904  0.75445247  1.0
  O  O3  4  0.06104654  0.22420684  0.64020459  1.0
  O  O4  4  0.23221556  0.50909704  0.41997780  1.0
  O  O5  4  0.24843625  0.66851866  0.75119700  1.0
  O  O6  4  0.27801921  0.51108590  0.09626457  1.0
  O  O7  4  0.43579181  0.23095153  0.85597746  1.0
