# generated using pymatgen
data_Li7TaO6
_symmetry_space_group_name_H-M   R3
_cell_length_a   5.57124133
_cell_length_b   5.57124133
_cell_length_c   14.71185621
_cell_angle_alpha   90.00000000
_cell_angle_beta   90.00000000
_cell_angle_gamma   120.00000000
_symmetry_Int_Tables_number   146
_chemical_formula_structural   Li7TaO6
_chemical_formula_sum   'Li21 Ta3 O18'
_cell_volume   395.45953031
_cell_formula_units_Z   3
loop_
 _symmetry_equiv_pos_site_id
 _symmetry_equiv_pos_as_xyz
  1  'x, y, z'
  2  '-y, x-y, z'
  3  '-x+y, -x, z'
  4  'x+2/3, y+1/3, z+1/3'
  5  '-y+2/3, x-y+1/3, z+1/3'
  6  '-x+y+2/3, -x+1/3, z+1/3'
  7  'x+1/3, y+2/3, z+2/3'
  8  '-y+1/3, x-y+2/3, z+2/3'
  9  '-x+y+1/3, -x+2/3, z+2/3'
loop_
 _atom_site_type_symbol
 _atom_site_label
 _atom_site_symmetry_multiplicity
 _atom_site_fract_x
 _atom_site_fract_y
 _atom_site_fract_z
 _atom_site_occupancy
  Li  Li0  9  0.00532197  0.61599926  0.10411325  1.0
  Li  Li1  9  0.01561755  0.28681741  0.20698719  1.0
  Li  Li2  3  0.00000000  0.00000000  0.64147939  1.0
  Ta  Ta3  3  0.00000000  0.00000000  0.99038619  1.0
  O  O4  9  0.04885838  0.37296383  0.73756595  1.0
  O  O5  9  0.05582802  0.70157723  0.57495953  1.0
