# generated using pymatgen
data_LiPO3
_symmetry_space_group_name_H-M   P2_1/c
_cell_length_a   5.40143804
_cell_length_b   17.29072278
_cell_length_c   9.01771852
_cell_angle_alpha   90.00000000
_cell_angle_beta   116.75957807
_cell_angle_gamma   90.00000000
_symmetry_Int_Tables_number   14
_chemical_formula_structural   LiPO3
_chemical_formula_sum   'Li12 P12 O36'
_cell_volume   752.01038612
_cell_formula_units_Z   12
loop_
 _symmetry_equiv_pos_site_id
 _symmetry_equiv_pos_as_xyz
  1  'x, y, z'
  2  '-x, -y, -z'
  3  '-x, y+1/2, -z+1/2'
  4  'x, -y+1/2, z+1/2'
loop_
 _atom_site_type_symbol
 _atom_site_label
 _atom_site_symmetry_multiplicity
 _atom_site_fract_x
 _atom_site_fract_y
 _atom_site_fract_z
 _atom_site_occupancy
  Li  Li0  4  0.08117093  0.02022925  0.37317402  1.0
  Li  Li1  4  0.09047357  0.69071071  0.27712312  1.0
  Li  Li2  4  0.18521304  0.65693351  0.93999186  1.0
  P  P3  4  0.38461247  0.18918565  0.90885270  1.0
  P  P4  4  0.39118525  0.10019018  0.19519550  1.0
  P  P5  4  0.49067847  0.06209208  0.71932165  1.0
  O  O6  4  0.13234685  0.21726769  0.75907863  1.0
  O  O7  4  0.16438240  0.10396846  0.24910218  1.0
  O  O8  4  0.18340309  0.05823998  0.60305920  1.0
  O  O9  4  0.26673917  0.13336959  0.00806243  1.0
  O  O10  4  0.31067720  0.56669201  0.85577796  1.0
  O  O11  4  0.32675234  0.63407575  0.19411349  1.0
  O  O12  4  0.40357995  0.74386873  0.47116745  1.0
  O  O13  4  0.42847225  0.01055579  0.15324280  1.0
  O  O14  4  0.43713206  0.63099208  0.64790773  1.0
