# generated using pymatgen
data_Li8Be5(BO3)6
_symmetry_space_group_name_H-M   P-1
_cell_length_a   4.71945709
_cell_length_b   11.69079734
_cell_length_c   11.97508970
_cell_angle_alpha   77.34028859
_cell_angle_beta   89.36741523
_cell_angle_gamma   89.24242565
_symmetry_Int_Tables_number   2
_chemical_formula_structural   Li8Be5(BO3)6
_chemical_formula_sum   'Li16 Be10 B12 O36'
_cell_volume   644.57464497
_cell_formula_units_Z   2
loop_
 _symmetry_equiv_pos_site_id
 _symmetry_equiv_pos_as_xyz
  1  'x, y, z'
  2  '-x, -y, -z'
loop_
 _atom_site_type_symbol
 _atom_site_label
 _atom_site_symmetry_multiplicity
 _atom_site_fract_x
 _atom_site_fract_y
 _atom_site_fract_z
 _atom_site_occupancy
  Li  Li0  2  0.16798269  0.42978129  0.85989386  1.0
  Li  Li1  2  0.18712651  0.26010923  0.31578497  1.0
  Li  Li2  2  0.20628625  0.92811087  0.98753957  1.0
  Li  Li3  2  0.31741133  0.75734950  0.81348134  1.0
  Li  Li4  2  0.32081941  0.42764503  0.47216990  1.0
  Li  Li5  2  0.32184889  0.00873683  0.39216078  1.0
  Li  Li6  2  0.33216427  0.32741303  0.70003360  1.0
  Li  Li7  2  0.34738685  0.87517911  0.26574391  1.0
  Be  Be8  2  0.17709387  0.59802066  0.64127850  1.0
  Be  Be9  2  0.17774576  0.15861958  0.55161466  1.0
  Be  Be10  2  0.18810778  0.71775295  0.17670820  1.0
  Be  Be11  2  0.30029900  0.10576530  0.14188122  1.0
  Be  Be12  2  0.32653476  0.56597410  0.01903783  1.0
  B  B13  2  0.13244990  0.66702896  0.41724206  1.0
  B  B14  2  0.15552097  0.33831883  0.08153206  1.0
  B  B15  2  0.18421105  0.99178996  0.75314210  1.0
  B  B16  2  0.31912739  0.18021211  0.91664040  1.0
  B  B17  2  0.32707852  0.81642515  0.56598329  1.0
  B  B18  2  0.34379275  0.50116802  0.25274255  1.0
  O  O19  2  0.10969181  0.01711526  0.23847460  1.0
  O  O20  2  0.12986038  0.64413823  0.92711341  1.0
  O  O21  2  0.14566708  0.29749958  0.57137647  1.0
  O  O22  2  0.14625636  0.26104586  0.84602260  1.0
  O  O23  2  0.15071756  0.87218106  0.48056289  1.0
  O  O24  2  0.16155960  0.43053085  0.32485643  1.0
  O  O25  2  0.21197903  0.09938246  0.00958912  1.0
  O  O26  2  0.22670467  0.73302077  0.65978749  1.0
  O  O27  2  0.24594369  0.57834810  0.15058190  1.0
  O  O28  2  0.26458808  0.59225723  0.50877052  1.0
  O  O29  2  0.27169344  0.70178066  0.31262531  1.0
  O  O30  2  0.27304150  0.24552983  0.15740787  1.0
  O  O31  2  0.31396032  0.06942030  0.66431372  1.0
  O  O32  2  0.33067973  0.42247383  0.01124111  1.0
  O  O33  2  0.35387338  0.92166621  0.83555030  1.0
  O  O34  2  0.37108372  0.49890716  0.72559805  1.0
  O  O35  2  0.38551551  0.15618145  0.43781555  1.0
  O  O36  2  0.39272741  0.81884857  0.10790899  1.0
