# generated using pymatgen
data_Li6Si2O7
_symmetry_space_group_name_H-M   P-42_1m
_cell_length_a   7.76740601
_cell_length_b   7.76740601
_cell_length_c   4.90538450
_cell_angle_alpha   90.00000000
_cell_angle_beta   90.00000000
_cell_angle_gamma   90.00000000
_symmetry_Int_Tables_number   113
_chemical_formula_structural   Li6Si2O7
_chemical_formula_sum   'Li12 Si4 O14'
_cell_volume   295.95458182
_cell_formula_units_Z   2
loop_
 _symmetry_equiv_pos_site_id
 _symmetry_equiv_pos_as_xyz
  1  'x, y, z'
  2  'y, -x, -z'
  3  '-x, -y, z'
  4  '-y, x, -z'
  5  '-x+1/2, y+1/2, -z'
  6  '-y+1/2, -x+1/2, z'
  7  'x+1/2, -y+1/2, -z'
  8  'y+1/2, x+1/2, z'
loop_
 _atom_site_type_symbol
 _atom_site_label
 _atom_site_symmetry_multiplicity
 _atom_site_fract_x
 _atom_site_fract_y
 _atom_site_fract_z
 _atom_site_occupancy
  Li  Li0  8  0.08291193  0.86348869  0.29658902  1.0
  Li  Li1  4  0.11013332  0.38986668  0.31287386  1.0
  Si  Si2  4  0.14403127  0.64403127  0.82016259  1.0
  O  O3  8  0.09845381  0.83634597  0.70897536  1.0
  O  O4  4  0.13102476  0.63102476  0.15325041  1.0
  O  O5  2  0.00000000  0.50000000  0.68248919  1.0
