# generated using pymatgen
data_Li4Re6S11
_symmetry_space_group_name_H-M   Pccn
_cell_length_a   9.65904743
_cell_length_b   13.83789281
_cell_length_c   12.01749966
_cell_angle_alpha   90.00000000
_cell_angle_beta   90.00000000
_cell_angle_gamma   90.00000000
_symmetry_Int_Tables_number   56
_chemical_formula_structural   Li4Re6S11
_chemical_formula_sum   'Li16 Re24 S44'
_cell_volume   1606.26937497
_cell_formula_units_Z   4
loop_
 _symmetry_equiv_pos_site_id
 _symmetry_equiv_pos_as_xyz
  1  'x, y, z'
  2  '-x, -y, -z'
  3  '-x+1/2, -y+1/2, z'
  4  'x+1/2, y+1/2, -z'
  5  'x+1/2, -y, -z+1/2'
  6  '-x+1/2, y, z+1/2'
  7  '-x, y+1/2, -z+1/2'
  8  'x, -y+1/2, z+1/2'
loop_
 _atom_site_type_symbol
 _atom_site_label
 _atom_site_symmetry_multiplicity
 _atom_site_fract_x
 _atom_site_fract_y
 _atom_site_fract_z
 _atom_site_occupancy
  Li  Li0  8  0.06711443  0.14280674  0.62706790  1.0
  Li  Li1  8  0.13029418  0.70816218  0.21777718  1.0
  Re  Re2  8  0.07362085  0.55457756  0.62752527  1.0
  Re  Re3  8  0.10993696  0.10836069  0.02168075  1.0
  Re  Re4  8  0.14156205  0.55559580  0.41380882  1.0
  S  S5  8  0.04103756  0.09835013  0.21503824  1.0
  S  S6  8  0.09387034  0.70234812  0.51901228  1.0
  S  S7  8  0.16206281  0.09994722  0.82693119  1.0
  S  S8  8  0.16743562  0.63078661  0.79883864  1.0
  S  S9  8  0.20009077  0.50612405  0.05835008  1.0
  S  S10  4  0.25000000  0.25000000  0.07872517  1.0
