# generated using pymatgen
data_KLiYF5
_symmetry_space_group_name_H-M   P2_1/c
_cell_length_a   6.48133818
_cell_length_b   24.03504298
_cell_length_c   6.40382187
_cell_angle_alpha   90.00000000
_cell_angle_beta   113.76767975
_cell_angle_gamma   90.00000000
_symmetry_Int_Tables_number   14
_chemical_formula_structural   KLiYF5
_chemical_formula_sum   'K8 Li8 Y8 F40'
_cell_volume   912.97470811
_cell_formula_units_Z   8
loop_
 _symmetry_equiv_pos_site_id
 _symmetry_equiv_pos_as_xyz
  1  'x, y, z'
  2  '-x, -y, -z'
  3  '-x, y+1/2, -z+1/2'
  4  'x, -y+1/2, z+1/2'
loop_
 _atom_site_type_symbol
 _atom_site_label
 _atom_site_symmetry_multiplicity
 _atom_site_fract_x
 _atom_site_fract_y
 _atom_site_fract_z
 _atom_site_occupancy
  K  K0  4  0.24191480  0.04969075  0.45604671  1.0
  K  K1  4  0.33198161  0.20091291  0.52715309  1.0
  Li  Li2  4  0.16050215  0.74979200  0.54301674  1.0
  Li  Li3  4  0.28062534  0.50234846  0.44722613  1.0
  Y  Y4  4  0.03392483  0.62580015  0.68651284  1.0
  Y  Y5  4  0.39833330  0.62589901  0.32277692  1.0
  F  F6  4  0.00107412  0.72138096  0.73640655  1.0
  F  F7  4  0.03706195  0.03776795  0.75594531  1.0
  F  F8  4  0.04722236  0.63593937  0.05164845  1.0
  F  F9  4  0.18723644  0.57275983  0.47296455  1.0
  F  F10  4  0.23665754  0.13093263  0.16665949  1.0
  F  F11  4  0.24268115  0.67688704  0.53116266  1.0
  F  F12  4  0.33167566  0.12547335  0.82436449  1.0
  F  F13  4  0.38106751  0.61233260  0.95660915  1.0
  F  F14  4  0.42252002  0.71323731  0.22430538  1.0
  F  F15  4  0.48122394  0.53232569  0.31186769  1.0
