# generated using pymatgen
data_Li3P7
_symmetry_space_group_name_H-M   P2_12_12_1
_cell_length_a   7.63139409
_cell_length_b   9.87720688
_cell_length_c   10.56373459
_cell_angle_alpha   90.00000000
_cell_angle_beta   90.00000000
_cell_angle_gamma   90.00000000
_symmetry_Int_Tables_number   19
_chemical_formula_structural   Li3P7
_chemical_formula_sum   'Li12 P28'
_cell_volume   796.26112510
_cell_formula_units_Z   4
loop_
 _symmetry_equiv_pos_site_id
 _symmetry_equiv_pos_as_xyz
  1  'x, y, z'
  2  '-x+1/2, -y, z+1/2'
  3  'x+1/2, -y+1/2, -z'
  4  '-x, y+1/2, -z+1/2'
loop_
 _atom_site_type_symbol
 _atom_site_label
 _atom_site_symmetry_multiplicity
 _atom_site_fract_x
 _atom_site_fract_y
 _atom_site_fract_z
 _atom_site_occupancy
  Li  Li0  4  0.06846667  0.47331378  0.48461008  1.0
  Li  Li1  4  0.09887418  0.69850749  0.68945549  1.0
  Li  Li2  4  0.15038165  0.80641430  0.18372928  1.0
  P  P3  4  0.03325107  0.55868980  0.93379231  1.0
  P  P4  4  0.03416622  0.57119507  0.26663537  1.0
  P  P5  4  0.09493221  0.86752261  0.49559985  1.0
  P  P6  4  0.12922515  0.21969493  0.49409988  1.0
  P  P7  4  0.13757717  0.45276768  0.11187757  1.0
  P  P8  4  0.18287009  0.07145367  0.88104862  1.0
  P  P9  4  0.21945062  0.12556645  0.31762750  1.0
