# generated using pymatgen
data_Li2SeO4
_symmetry_space_group_name_H-M   R-3
_cell_length_a   14.17776025
_cell_length_b   14.17776025
_cell_length_c   9.45810812
_cell_angle_alpha   90.00000000
_cell_angle_beta   90.00000000
_cell_angle_gamma   120.00000000
_symmetry_Int_Tables_number   148
_chemical_formula_structural   Li2SeO4
_chemical_formula_sum   'Li36 Se18 O72'
_cell_volume   1646.45612434
_cell_formula_units_Z   18
loop_
 _symmetry_equiv_pos_site_id
 _symmetry_equiv_pos_as_xyz
  1  'x, y, z'
  2  '-x, -y, -z'
  3  '-y, x-y, z'
  4  'y, -x+y, -z'
  5  '-x+y, -x, z'
  6  'x-y, x, -z'
  7  'x+2/3, y+1/3, z+1/3'
  8  '-x+2/3, -y+1/3, -z+1/3'
  9  '-y+2/3, x-y+1/3, z+1/3'
  10  'y+2/3, -x+y+1/3, -z+1/3'
  11  '-x+y+2/3, -x+1/3, z+1/3'
  12  'x-y+2/3, x+1/3, -z+1/3'
  13  'x+1/3, y+2/3, z+2/3'
  14  '-x+1/3, -y+2/3, -z+2/3'
  15  '-y+1/3, x-y+2/3, z+2/3'
  16  'y+1/3, -x+y+2/3, -z+2/3'
  17  '-x+y+1/3, -x+2/3, z+2/3'
  18  'x-y+1/3, x+2/3, -z+2/3'
loop_
 _atom_site_type_symbol
 _atom_site_label
 _atom_site_symmetry_multiplicity
 _atom_site_fract_x
 _atom_site_fract_y
 _atom_site_fract_z
 _atom_site_occupancy
  Li  Li0  18  0.01393124  0.20723178  0.08750957  1.0
  Li  Li1  18  0.01947528  0.21189301  0.41790121  1.0
  Se  Se2  18  0.01289918  0.21072241  0.75281926  1.0
  O  O3  18  0.00332521  0.32305506  0.75061403  1.0
  O  O4  18  0.07623180  0.20661193  0.89928625  1.0
  O  O5  18  0.07888018  0.20656737  0.60879945  1.0
  O  O6  18  0.10314219  0.21592817  0.25161180  1.0
